@<TRIPOS>MOLECULE
NCZ
   42    44     1     0     0
SMALL
gas


@<TRIPOS>ATOM
      1 C1           0.6053    12.4989    -0.8417 C.ar       1 NCZ      -0.022995
      2 C6           0.4158    11.0812    -0.7893 C.ar       1 NCZ       0.000513
      3 C5           0.7344    10.3312    -1.9710 C.ar       1 NCZ      -0.014267
      4 C7           0.5761     8.9257    -1.9428 C.ar       1 NCZ      -0.051468
      5 C8           0.1536     8.2735    -0.7998 C.ar       1 NCZ      -0.030578
      6 C9          -0.1630     8.9778     0.3475 C.ar       1 NCZ       0.085257
      7 C10         -0.0510    10.3812     0.3906 C.ar       1 NCZ       0.084910
      8 C11         -0.3714    11.1111     1.6584 C.2        1 NCZ       0.296414
      9 O3          -1.0416    12.1451     1.7010 O.2        1 NCZ      -0.260548
     10 O4           0.2525    10.5779     2.7411 O.3        1 NCZ      -0.302484
     11 C12          0.2661    11.2290     4.0170 C.3        1 NCZ       0.126355
     12 C13          1.1918    12.4556     4.0034 C.3        1 NCZ       0.101861
     13 C14          1.9273    12.3410     5.3187 C.2        1 NCZ      -0.054813
     14 C15          1.7216    11.1472     5.9025 C.2        1 NCZ      -0.054813
     15 C16          0.7884    10.2703     5.0981 C.3        1 NCZ       0.101861
     16 O6          -0.2414     9.7380     5.9086 O.3        1 NCZ      -0.386186
     17 O5           0.4785    13.6704     3.8797 O.3        1 NCZ      -0.386186
     18 O2          -0.5828     8.2293     1.4189 O.3        1 NCZ      -0.360066
     19 C4           1.2198    11.0119    -3.1289 C.ar       1 NCZ      -0.040650
     20 C3           1.3590    12.3961    -3.1197 C.ar       1 NCZ      -0.028235
     21 C2           1.0609    13.1483    -1.9940 C.ar       1 NCZ       0.075431
     22 O1           1.2567    14.5127    -2.0972 O.3        1 NCZ      -0.349350
     23 C17          1.0236    15.3414    -0.9640 C.3        1 NCZ       0.042189
     24 C18          1.6088    10.2328    -4.3774 C.3        1 NCZ      -0.039061
     25 H1           0.3957    13.0905     0.0296 H          1 NCZ       0.065733
     26 H7           0.8368     8.3239    -2.8024 H          1 NCZ       0.063035
     27 H8           0.0906     7.1932    -0.8176 H          1 NCZ       0.065084
     28 H12         -0.7544    11.5291     4.2653 H          1 NCZ       0.067303
     29 H13          1.9251    12.3798     3.1981 H          1 NCZ       0.067524
     30 H14          2.5631    13.1326     5.6852 H          1 NCZ       0.060175
     31 H15          2.1640    10.8054     6.8283 H          1 NCZ       0.060175
     32 H16          1.3662     9.4568     4.6557 H          1 NCZ       0.067524
     33 H6          -0.6910     9.0205     5.4493 H          1 NCZ       0.211055
     34 H5          -0.0111    13.6511     3.0499 H          1 NCZ       0.211055
     35 H2          -0.4358     7.2927     1.2681 H          1 NCZ       0.218282
     36 H3           1.7268    12.9055    -3.9992 H          1 NCZ       0.065350
     37 H171         1.2368    16.3779    -1.2260 H          1 NCZ       0.053548
     38 H172         1.6743    15.0751    -0.1298 H          1 NCZ       0.053548
     39 H173        -0.0178    15.2923    -0.6397 H          1 NCZ       0.053548
     40 H181         2.0063    10.8842    -5.1586 H          1 NCZ       0.027990
     41 H182         0.7450     9.7075    -4.7864 H          1 NCZ       0.027990
     42 H183         2.3782     9.4981    -4.1330 H          1 NCZ       0.027990
@<TRIPOS>BOND
     1     1     2 ar  
     2     1    21 ar  
     3     1    25 1   
     4     2     3 ar  
     5     2     7 ar  
     6     3     4 ar  
     7     3    19 ar  
     8     4     5 ar  
     9     4    26 1   
    10     5     6 ar  
    11     5    27 1   
    12     6     7 ar  
    13     6    18 1   
    14     7     8 1   
    15     8     9 2   
    16     8    10 1   
    17    10    11 1   
    18    11    12 1   
    19    11    15 1   
    20    11    28 1   
    21    12    13 1   
    22    12    17 1   
    23    12    29 1   
    24    13    14 2   
    25    13    30 1   
    26    14    15 1   
    27    14    31 1   
    28    15    16 1   
    29    15    32 1   
    30    16    33 1   
    31    17    34 1   
    32    18    35 1   
    33    19    20 ar  
    34    19    24 1   
    35    20    21 ar  
    36    20    36 1   
    37    21    22 1   
    38    22    23 1   
    39    23    37 1   
    40    23    38 1   
    41    23    39 1   
    42    24    40 1   
    43    24    41 1   
    44    24    42 1   
@<TRIPOS>SUBSTRUCTURE
     1 NCZ         1 TEMP              0 ****  ****    0 ROOT
