@<TRIPOS>MOLECULE
NCZ
   42    44     1     0     0
SMALL
gas


@<TRIPOS>ATOM
      1 C1           0.5742     9.3803     4.3852 C.ar       1 NCZ      -0.022995
      2 C6           0.1681    10.5439     3.6514 C.ar       1 NCZ       0.000513
      3 C5          -0.0513    11.7427     4.4148 C.ar       1 NCZ      -0.014267
      4 C7          -0.3356    12.9461     3.7279 C.ar       1 NCZ      -0.051468
      5 C8          -0.4279    12.9728     2.3507 C.ar       1 NCZ      -0.030578
      6 C9          -0.2917    11.8186     1.5997 C.ar       1 NCZ       0.085257
      7 C10         -0.0084    10.5748     2.2050 C.ar       1 NCZ       0.084910
      8 C11          0.1565     9.3641     1.3059 C.2        1 NCZ       0.296414
      9 O3           0.5583     9.4271     0.1451 O.2        1 NCZ      -0.260548
     10 O4          -0.3022     8.2128     1.8624 O.3        1 NCZ      -0.302484
     11 C12         -0.1820     6.9287     1.2355 C.3        1 NCZ       0.126355
     12 C13         -0.9746     6.7352    -0.0726 C.3        1 NCZ       0.101861
     13 C14         -1.4414     5.2997     0.0304 C.2        1 NCZ      -0.054813
     14 C15         -1.2954     4.8203     1.2769 C.2        1 NCZ      -0.054813
     15 C16         -0.7169     5.8612     2.2093 C.3        1 NCZ       0.101861
     16 O6           0.2600     5.3119     3.0669 O.3        1 NCZ      -0.386186
     17 O5          -0.2405     6.9624    -1.2593 O.3        1 NCZ      -0.386186
     18 O2          -0.4935    11.9738     0.2508 O.3        1 NCZ      -0.360066
     19 C4           0.0320    11.7031     5.8421 C.ar       1 NCZ      -0.040650
     20 C3           0.3647    10.5200     6.4887 C.ar       1 NCZ      -0.028235
     21 C2           0.6663     9.3703     5.7802 C.ar       1 NCZ       0.075431
     22 O1           1.0072     8.2636     6.5287 O.3        1 NCZ      -0.349350
     23 C17          1.9552     7.3429     6.0031 C.3        1 NCZ       0.042189
     24 C18         -0.2366    12.9518     6.6745 C.3        1 NCZ      -0.039061
     25 H1           0.8223     8.4762     3.8614 H          1 NCZ       0.065733
     26 H7          -0.4794    13.8677     4.2716 H          1 NCZ       0.063035
     27 H8          -0.6426    13.9142     1.8654 H          1 NCZ       0.065084
     28 H12          0.8822     6.7919     1.0459 H          1 NCZ       0.067303
     29 H13         -1.8492     7.3838    -0.0673 H          1 NCZ       0.067524
     30 H14         -1.8625     4.7684    -0.8119 H          1 NCZ       0.060175
     31 H15         -1.5800     3.8372     1.6249 H          1 NCZ       0.060175
     32 H16         -1.5355     6.2621     2.8113 H          1 NCZ       0.067524
     33 H6           0.5103     5.9655     3.7224 H          1 NCZ       0.211055
     34 H5           0.6746     6.6514    -1.1571 H          1 NCZ       0.211055
     35 H2          -0.6300    12.8878    -0.0015 H          1 NCZ       0.218282
     36 H3           0.4223    10.4913     7.5671 H          1 NCZ       0.065350
     37 H171         2.1133     6.5536     6.7367 H          1 NCZ       0.053548
     38 H172         2.9201     7.8241     5.8450 H          1 NCZ       0.053548
     39 H173         1.6256     6.8636     5.0820 H          1 NCZ       0.053548
     40 H181        -0.1682    12.7509     7.7443 H          1 NCZ       0.027990
     41 H182        -1.2377    13.3364     6.4777 H          1 NCZ       0.027990
     42 H183         0.4895    13.7311     6.4404 H          1 NCZ       0.027990
@<TRIPOS>BOND
     1     1     2 ar  
     2     1    21 ar  
     3     1    25 1   
     4     2     3 ar  
     5     2     7 ar  
     6     3     4 ar  
     7     3    19 ar  
     8     4     5 ar  
     9     4    26 1   
    10     5     6 ar  
    11     5    27 1   
    12     6     7 ar  
    13     6    18 1   
    14     7     8 1   
    15     8     9 2   
    16     8    10 1   
    17    10    11 1   
    18    11    12 1   
    19    11    15 1   
    20    11    28 1   
    21    12    13 1   
    22    12    17 1   
    23    12    29 1   
    24    13    14 2   
    25    13    30 1   
    26    14    15 1   
    27    14    31 1   
    28    15    16 1   
    29    15    32 1   
    30    16    33 1   
    31    17    34 1   
    32    18    35 1   
    33    19    20 ar  
    34    19    24 1   
    35    20    21 ar  
    36    20    36 1   
    37    21    22 1   
    38    22    23 1   
    39    23    37 1   
    40    23    38 1   
    41    23    39 1   
    42    24    40 1   
    43    24    41 1   
    44    24    42 1   
@<TRIPOS>SUBSTRUCTURE
     1 NCZ         1 TEMP              0 ****  ****    0 ROOT
