@<TRIPOS>MOLECULE
NCZ
   42    44     1     0     0
SMALL
gas


@<TRIPOS>ATOM
      1 C1           0.7478    10.6691    -0.2993 C.ar       1 NCZ      -0.022995
      2 C6           0.3259    11.2418     0.9437 C.ar       1 NCZ       0.000513
      3 C5           0.0981    12.6603     0.9713 C.ar       1 NCZ      -0.014267
      4 C7          -0.2377    13.2742     2.2041 C.ar       1 NCZ      -0.051468
      5 C8          -0.2904    12.5372     3.3730 C.ar       1 NCZ      -0.030578
      6 C9          -0.0805    11.1689     3.3648 C.ar       1 NCZ       0.085257
      7 C10          0.1577    10.4729     2.1620 C.ar       1 NCZ       0.084910
      8 C11          0.3134     8.9743     2.2124 C.2        1 NCZ       0.296414
      9 O3           0.8725     8.3854     3.1443 O.2        1 NCZ      -0.260548
     10 O4          -0.3357     8.3373     1.2116 O.3        1 NCZ      -0.302484
     11 C12         -0.1286     6.9418     0.9707 C.3        1 NCZ       0.126355
     12 C13         -0.7018     6.5636    -0.3899 C.3        1 NCZ       0.101861
     13 C14         -1.0490     5.1036    -0.2005 C.2        1 NCZ      -0.054813
     14 C15         -1.1269     4.7949     1.1072 C.2        1 NCZ      -0.054813
     15 C16         -0.8023     5.9908     1.9797 C.3        1 NCZ       0.101861
     16 O6           0.0275     5.6326     3.0652 O.3        1 NCZ      -0.386186
     17 O5           0.1576     6.8110    -1.4867 O.3        1 NCZ      -0.386186
     18 O2          -0.1461    10.5431     4.5863 O.3        1 NCZ      -0.360066
     19 C4           0.2354    13.4206    -0.2320 C.ar       1 NCZ      -0.040650
     20 C3           0.6439    12.7990    -1.4062 C.ar       1 NCZ      -0.028235
     21 C2           0.9250    11.4430    -1.4521 C.ar       1 NCZ       0.075431
     22 O1           1.3800    10.9609    -2.6639 O.3        1 NCZ      -0.349350
     23 C17          1.7986     9.6033    -2.7638 C.3        1 NCZ       0.042189
     24 C18         -0.0278    14.9223    -0.2406 C.3        1 NCZ      -0.039061
     25 H1           0.9733     9.6162    -0.3473 H          1 NCZ       0.065733
     26 H7          -0.4193    14.3374     2.2537 H          1 NCZ       0.063035
     27 H8          -0.5024    13.0404     4.3051 H          1 NCZ       0.065084
     28 H12          0.9534     6.8054     0.9506 H          1 NCZ       0.067303
     29 H13         -1.6380     7.0994    -0.5341 H          1 NCZ       0.067524
     30 H14         -1.2489     4.4415    -1.0323 H          1 NCZ       0.060175
     31 H15         -1.3987     3.8370     1.5271 H          1 NCZ       0.060175
     32 H16         -1.7326     6.4230     2.3531 H          1 NCZ       0.067524
     33 H6           0.3774     6.4359     3.4635 H          1 NCZ       0.211055
     34 H5           1.0789     6.5419    -1.2958 H          1 NCZ       0.211055
     35 H2           0.1591     9.6315     4.5359 H          1 NCZ       0.218282
     36 H3           0.7715    13.3821    -2.3067 H          1 NCZ       0.065350
     37 H171         2.2375     9.4280    -3.7457 H          1 NCZ       0.053548
     38 H172         0.9486     8.9316    -2.6641 H          1 NCZ       0.053548
     39 H173         2.5554     9.3430    -2.0203 H          1 NCZ       0.053548
     40 H181         0.0832    15.3492    -1.2380 H          1 NCZ       0.027990
     41 H182         0.6744    15.4352     0.4173 H          1 NCZ       0.027990
     42 H183        -1.0421    15.1377     0.0957 H          1 NCZ       0.027990
@<TRIPOS>BOND
     1     1     2 ar  
     2     1    21 ar  
     3     1    25 1   
     4     2     3 ar  
     5     2     7 ar  
     6     3     4 ar  
     7     3    19 ar  
     8     4     5 ar  
     9     4    26 1   
    10     5     6 ar  
    11     5    27 1   
    12     6     7 ar  
    13     6    18 1   
    14     7     8 1   
    15     8     9 2   
    16     8    10 1   
    17    10    11 1   
    18    11    12 1   
    19    11    15 1   
    20    11    28 1   
    21    12    13 1   
    22    12    17 1   
    23    12    29 1   
    24    13    14 2   
    25    13    30 1   
    26    14    15 1   
    27    14    31 1   
    28    15    16 1   
    29    15    32 1   
    30    16    33 1   
    31    17    34 1   
    32    18    35 1   
    33    19    20 ar  
    34    19    24 1   
    35    20    21 ar  
    36    20    36 1   
    37    21    22 1   
    38    22    23 1   
    39    23    37 1   
    40    23    38 1   
    41    23    39 1   
    42    24    40 1   
    43    24    41 1   
    44    24    42 1   
@<TRIPOS>SUBSTRUCTURE
     1 NCZ         1 TEMP              0 ****  ****    0 ROOT
