@<TRIPOS>MOLECULE
NCZ
   42    44     1     0     0
SMALL
gas


@<TRIPOS>ATOM
      1 C1           0.9592    10.4701    -2.3964 C.ar       1 NCZ      -0.022995
      2 C6           0.6422    11.2691    -1.2524 C.ar       1 NCZ       0.000513
      3 C5           0.7888    12.6914    -1.3823 C.ar       1 NCZ      -0.014267
      4 C7           0.5282    13.5095    -0.2561 C.ar       1 NCZ      -0.051468
      5 C8           0.1571    12.9518     0.9556 C.ar       1 NCZ      -0.030578
      6 C9          -0.0001    11.5852     1.0943 C.ar       1 NCZ       0.085257
      7 C10          0.1912    10.7087     0.0055 C.ar       1 NCZ       0.084910
      8 C11         -0.0929     9.2344     0.1631 C.2        1 NCZ       0.296414
      9 O3          -0.6408     8.5474    -0.6979 O.2        1 NCZ      -0.260548
     10 O4           0.3519     8.7361     1.3466 O.3        1 NCZ      -0.302484
     11 C12          0.3070     7.3397     1.6602 C.3        1 NCZ       0.126355
     12 C13         -1.1025     6.8273     2.0051 C.3        1 NCZ       0.101861
     13 C14         -0.9922     6.4786     3.4712 C.2        1 NCZ      -0.054813
     14 C15          0.2488     6.6436     3.9518 C.2        1 NCZ      -0.054813
     15 C16          1.2061     7.1025     2.8849 C.3        1 NCZ       0.101861
     16 O6           2.2083     6.1423     2.6685 O.3        1 NCZ      -0.386186
     17 O5          -1.5130     5.7198     1.2329 O.3        1 NCZ      -0.386186
     18 O2          -0.3554    11.1474     2.3449 O.3        1 NCZ      -0.360066
     19 C4           1.1907    13.2487    -2.6364 C.ar       1 NCZ      -0.040650
     20 C3           1.4459    12.4165    -3.7196 C.ar       1 NCZ      -0.028235
     21 C2           1.3373    11.0377    -3.6188 C.ar       1 NCZ       0.075431
     22 O1           1.5999    10.3208    -4.7726 O.3        1 NCZ      -0.349350
     23 C17          1.6179     8.8999    -4.7258 C.3        1 NCZ       0.042189
     24 C18          1.3330    14.7558    -2.8110 C.3        1 NCZ      -0.039061
     25 H1           0.9124     9.3983    -2.3135 H          1 NCZ       0.065733
     26 H7           0.6332    14.5816    -0.3187 H          1 NCZ       0.063035
     27 H8          -0.0180    13.5982     1.8028 H          1 NCZ       0.065084
     28 H12          0.7044     6.8380     0.7775 H          1 NCZ       0.067303
     29 H13         -1.8370     7.6182     1.8649 H          1 NCZ       0.067524
     30 H14         -1.8420     6.1436     4.0460 H          1 NCZ       0.060175
     31 H15          0.5741     6.4562     4.9652 H          1 NCZ       0.060175
     32 H16          1.6861     8.0314     3.2015 H          1 NCZ       0.067524
     33 H6           2.5600     6.2439     1.7712 H          1 NCZ       0.211055
     34 H5          -2.3129     5.3564     1.6233 H          1 NCZ       0.211055
     35 H2          -0.2404    10.1959     2.4126 H          1 NCZ       0.218282
     36 H3           1.7433    12.8420    -4.6686 H          1 NCZ       0.065350
     37 H171         1.7557     8.5071    -5.7326 H          1 NCZ       0.053548
     38 H172         0.6869     8.4752    -4.3439 H          1 NCZ       0.053548
     39 H173         2.4523     8.5417    -4.1268 H          1 NCZ       0.053548
     40 H181         1.6397    15.0189    -3.8238 H          1 NCZ       0.027990
     41 H182         2.0815    15.1564    -2.1276 H          1 NCZ       0.027990
     42 H183         0.3821    15.2529    -2.6168 H          1 NCZ       0.027990
@<TRIPOS>BOND
     1     1     2 ar  
     2     1    21 ar  
     3     1    25 1   
     4     2     3 ar  
     5     2     7 ar  
     6     3     4 ar  
     7     3    19 ar  
     8     4     5 ar  
     9     4    26 1   
    10     5     6 ar  
    11     5    27 1   
    12     6     7 ar  
    13     6    18 1   
    14     7     8 1   
    15     8     9 2   
    16     8    10 1   
    17    10    11 1   
    18    11    12 1   
    19    11    15 1   
    20    11    28 1   
    21    12    13 1   
    22    12    17 1   
    23    12    29 1   
    24    13    14 2   
    25    13    30 1   
    26    14    15 1   
    27    14    31 1   
    28    15    16 1   
    29    15    32 1   
    30    16    33 1   
    31    17    34 1   
    32    18    35 1   
    33    19    20 ar  
    34    19    24 1   
    35    20    21 ar  
    36    20    36 1   
    37    21    22 1   
    38    22    23 1   
    39    23    37 1   
    40    23    38 1   
    41    23    39 1   
    42    24    40 1   
    43    24    41 1   
    44    24    42 1   
@<TRIPOS>SUBSTRUCTURE
     1 NCZ         1 TEMP              0 ****  ****    0 ROOT
