@<TRIPOS>MOLECULE
NCZ
   42    44     1     0     0
SMALL
gas


@<TRIPOS>ATOM
      1 C1           0.1590    10.3432     3.5443 C.ar       1 NCZ      -0.022995
      2 C6           0.3150     9.8653     4.8852 C.ar       1 NCZ       0.000513
      3 C5           0.0918    10.8139     5.9407 C.ar       1 NCZ      -0.014267
      4 C7           0.2950    10.4006     7.2804 C.ar       1 NCZ      -0.051468
      5 C8           0.7204     9.1175     7.5718 C.ar       1 NCZ      -0.030578
      6 C9           0.9221     8.1813     6.5712 C.ar       1 NCZ       0.085257
      7 C10          0.6853     8.4981     5.2178 C.ar       1 NCZ       0.084910
      8 C11          0.8923     7.4180     4.1845 C.2        1 NCZ       0.296414
      9 O3           1.7573     6.5431     4.2673 O.2        1 NCZ      -0.260548
     10 O4          -0.0569     7.4283     3.2209 O.3        1 NCZ      -0.302484
     11 C12         -0.0171     6.5415     2.1072 C.3        1 NCZ       0.126355
     12 C13         -0.7253     7.1571     0.8966 C.3        1 NCZ       0.101861
     13 C14         -1.4272     5.9683     0.2783 C.2        1 NCZ      -0.054813
     14 C15         -1.4316     4.9071     1.1053 C.2        1 NCZ      -0.054813
     15 C16         -0.7109     5.2016     2.4046 C.3        1 NCZ       0.101861
     16 O6           0.1579     4.1526     2.7715 O.3        1 NCZ      -0.386186
     17 O5           0.1573     7.8008    -0.0023 O.3        1 NCZ      -0.386186
     18 O2           1.3460     6.9419     6.9891 O.3        1 NCZ      -0.360066
     19 C4          -0.3163    12.1479     5.6204 C.ar       1 NCZ      -0.040650
     20 C3          -0.4763    12.5315     4.2933 C.ar       1 NCZ      -0.028235
     21 C2          -0.2427    11.6499     3.2519 C.ar       1 NCZ       0.075431
     22 O1          -0.4440    12.1392     1.9756 O.3        1 NCZ      -0.349350
     23 C17         -0.3204    11.2596     0.8615 C.3        1 NCZ       0.042189
     24 C18         -0.5726    13.1706     6.7217 C.3        1 NCZ      -0.039061
     25 H1           0.3691     9.6791     2.7246 H          1 NCZ       0.065733
     26 H7           0.1406    11.0910     8.0960 H          1 NCZ       0.063035
     27 H8           0.8876     8.8385     8.6015 H          1 NCZ       0.065084
     28 H12          1.0363     6.4292     1.8668 H          1 NCZ       0.067303
     29 H13         -1.4863     7.8699     1.2207 H          1 NCZ       0.067524
     30 H14         -1.8874     6.0170    -0.6975 H          1 NCZ       0.060175
     31 H15         -1.8930     3.9480     0.9134 H          1 NCZ       0.060175
     32 H16         -1.4420     5.3423     3.1980 H          1 NCZ       0.067524
     33 H6           0.7547     4.4609     3.4617 H          1 NCZ       0.211055
     34 H5           0.8610     7.1908    -0.2701 H          1 NCZ       0.211055
     35 H2           1.5355     6.3369     6.2616 H          1 NCZ       0.218282
     36 H3          -0.7842    13.5398     4.0542 H          1 NCZ       0.065350
     37 H171        -0.5475    11.8065    -0.0532 H          1 NCZ       0.053548
     38 H172        -1.0197    10.4257     0.9288 H          1 NCZ       0.053548
     39 H173         0.6953    10.8703     0.7656 H          1 NCZ       0.053548
     40 H181        -0.8847    14.1334     6.3177 H          1 NCZ       0.027990
     41 H182         0.3333    13.3364     7.3053 H          1 NCZ       0.027990
     42 H183        -1.3602    12.8264     7.3911 H          1 NCZ       0.027990
@<TRIPOS>BOND
     1     1     2 ar  
     2     1    21 ar  
     3     1    25 1   
     4     2     3 ar  
     5     2     7 ar  
     6     3     4 ar  
     7     3    19 ar  
     8     4     5 ar  
     9     4    26 1   
    10     5     6 ar  
    11     5    27 1   
    12     6     7 ar  
    13     6    18 1   
    14     7     8 1   
    15     8     9 2   
    16     8    10 1   
    17    10    11 1   
    18    11    12 1   
    19    11    15 1   
    20    11    28 1   
    21    12    13 1   
    22    12    17 1   
    23    12    29 1   
    24    13    14 2   
    25    13    30 1   
    26    14    15 1   
    27    14    31 1   
    28    15    16 1   
    29    15    32 1   
    30    16    33 1   
    31    17    34 1   
    32    18    35 1   
    33    19    20 ar  
    34    19    24 1   
    35    20    21 ar  
    36    20    36 1   
    37    21    22 1   
    38    22    23 1   
    39    23    37 1   
    40    23    38 1   
    41    23    39 1   
    42    24    40 1   
    43    24    41 1   
    44    24    42 1   
@<TRIPOS>SUBSTRUCTURE
     1 NCZ         1 TEMP              0 ****  ****    0 ROOT
