@<TRIPOS>MOLECULE
NCZ
   42    44     1     0     0
SMALL
gas


@<TRIPOS>ATOM
      1 C1          -0.1338    10.8972     2.2016 C.ar       1 NCZ      -0.022995
      2 C6           0.1580    10.4969     0.8650 C.ar       1 NCZ       0.000513
      3 C5           0.4521    11.5257    -0.0905 C.ar       1 NCZ      -0.014267
      4 C7           0.8114    11.1431    -1.4102 C.ar       1 NCZ      -0.051468
      5 C8           0.8583     9.8068    -1.7772 C.ar       1 NCZ      -0.030578
      6 C9           0.5350     8.8070    -0.8736 C.ar       1 NCZ       0.085257
      7 C10          0.1852     9.1176     0.4494 C.ar       1 NCZ       0.084910
      8 C11         -0.1437     7.9997     1.3807 C.2        1 NCZ       0.296414
      9 O3          -1.2860     7.5529     1.4666 O.2        1 NCZ      -0.260548
     10 O4           0.9580     7.5829     2.0856 O.3        1 NCZ      -0.302484
     11 C12          1.0148     6.5955     3.1454 C.3        1 NCZ       0.126355
     12 C13          0.0082     5.4241     3.1697 C.3        1 NCZ       0.101861
     13 C14         -0.6474     5.5906     4.5129 C.2        1 NCZ      -0.054813
     14 C15         -0.1691     6.6189     5.2199 C.2        1 NCZ      -0.054813
     15 C16          1.0147     7.2430     4.5466 C.3        1 NCZ       0.101861
     16 O6           2.1580     6.9418     5.3142 O.3        1 NCZ      -0.386186
     17 O5           0.5580     4.1418     3.0660 O.3        1 NCZ      -0.386186
     18 O2           0.5580     7.5157    -1.3333 O.3        1 NCZ      -0.360066
     19 C4           0.3808    12.8955     0.3154 C.ar       1 NCZ      -0.040650
     20 C3           0.0565    13.2197     1.6302 C.ar       1 NCZ      -0.028235
     21 C2          -0.1787    12.2398     2.5826 C.ar       1 NCZ       0.075431
     22 O1          -0.4560    12.6674     3.8662 O.3        1 NCZ      -0.349350
     23 C17         -0.2979    11.7495     4.9444 C.3        1 NCZ       0.042189
     24 C18          0.6642    14.0140    -0.6793 C.3        1 NCZ      -0.039061
     25 H1          -0.3167    10.1403     2.9409 H          1 NCZ       0.065733
     26 H7           1.0563    11.8922    -2.1478 H          1 NCZ       0.063035
     27 H8           1.1386     9.5385    -2.7857 H          1 NCZ       0.065084
     28 H12          2.0074     6.1781     2.9682 H          1 NCZ       0.067303
     29 H13         -0.7424     5.4817     2.3881 H          1 NCZ       0.067524
     30 H14         -1.4420     4.9419     4.8292 H          1 NCZ       0.060175
     31 H15         -0.5138     6.9388     6.1926 H          1 NCZ       0.060175
     32 H16          0.8867     8.3238     4.4691 H          1 NCZ       0.067524
     33 H6           2.1580     5.9835     5.4666 H          1 NCZ       0.211055
     34 H5           1.4354     4.1726     2.6666 H          1 NCZ       0.211055
     35 H2           1.4677     7.2008    -1.5338 H          1 NCZ       0.218282
     36 H3           0.0025    14.2559     1.9308 H          1 NCZ       0.065350
     37 H171        -0.4252    12.2797     5.8882 H          1 NCZ       0.053548
     38 H172         0.6982    11.3034     4.9489 H          1 NCZ       0.053548
     39 H173        -1.0421    10.9536     4.9146 H          1 NCZ       0.053548
     40 H181         0.5354    14.9997    -0.2304 H          1 NCZ       0.027990
     41 H182        -0.0139    13.9499    -1.5307 H          1 NCZ       0.027990
     42 H183         1.6898    13.9480    -1.0432 H          1 NCZ       0.027990
@<TRIPOS>BOND
     1     1     2 ar  
     2     1    21 ar  
     3     1    25 1   
     4     2     3 ar  
     5     2     7 ar  
     6     3     4 ar  
     7     3    19 ar  
     8     4     5 ar  
     9     4    26 1   
    10     5     6 ar  
    11     5    27 1   
    12     6     7 ar  
    13     6    18 1   
    14     7     8 1   
    15     8     9 2   
    16     8    10 1   
    17    10    11 1   
    18    11    12 1   
    19    11    15 1   
    20    11    28 1   
    21    12    13 1   
    22    12    17 1   
    23    12    29 1   
    24    13    14 2   
    25    13    30 1   
    26    14    15 1   
    27    14    31 1   
    28    15    16 1   
    29    15    32 1   
    30    16    33 1   
    31    17    34 1   
    32    18    35 1   
    33    19    20 ar  
    34    19    24 1   
    35    20    21 ar  
    36    20    36 1   
    37    21    22 1   
    38    22    23 1   
    39    23    37 1   
    40    23    38 1   
    41    23    39 1   
    42    24    40 1   
    43    24    41 1   
    44    24    42 1   
@<TRIPOS>SUBSTRUCTURE
     1 NCZ         1 TEMP              0 ****  ****    0 ROOT
