@<TRIPOS>MOLECULE
NCZ
   42    44     1     0     0
SMALL
gas


@<TRIPOS>ATOM
      1 C1           0.2498    11.0084     2.4833 C.ar       1 NCZ      -0.022995
      2 C6           0.1580     9.5959     2.2667 C.ar       1 NCZ       0.000513
      3 C5           0.5580     8.7457     3.3588 C.ar       1 NCZ      -0.014267
      4 C7           0.4815     7.3418     3.1919 C.ar       1 NCZ      -0.051468
      5 C8          -0.0502     6.7972     2.0397 C.ar       1 NCZ      -0.030578
      6 C9          -0.4803     7.5957     0.9937 C.ar       1 NCZ       0.085257
      7 C10         -0.3692     9.0019     1.0488 C.ar       1 NCZ       0.084910
      8 C11         -0.8810     9.8567    -0.0971 C.2        1 NCZ       0.296414
      9 O3          -1.4420    10.9378     0.0668 O.2        1 NCZ      -0.260548
     10 O4          -0.7855     9.3602    -1.3566 O.3        1 NCZ      -0.302484
     11 C12          0.3987     8.8152    -1.9391 C.3        1 NCZ       0.126355
     12 C13          1.4247     9.9087    -2.2372 C.3        1 NCZ       0.101861
     13 C14          1.7217     9.7419    -3.7086 C.2        1 NCZ      -0.054813
     14 C15          0.9578     8.7881    -4.2701 C.2        1 NCZ      -0.054813
     15 C16          0.0250     8.1418    -3.2691 C.3        1 NCZ       0.101861
     16 O6           0.1580     6.7358    -3.2331 O.3        1 NCZ      -0.386186
     17 O5           2.5581     9.7418    -1.4302 O.3        1 NCZ      -0.386186
     18 O2          -1.0620     6.9281    -0.0544 O.3        1 NCZ      -0.360066
     19 C4           0.9580     9.3295     4.6020 C.ar       1 NCZ      -0.040650
     20 C3           0.9847    10.7125     4.7504 C.ar       1 NCZ      -0.028235
     21 C2           0.6432    11.5596     3.6965 C.ar       1 NCZ       0.075431
     22 O1           0.6634    12.9391     3.7652 O.3        1 NCZ      -0.349350
     23 C17          1.1042    13.5719     4.9614 C.3        1 NCZ       0.042189
     24 C18          1.3487     8.4468     5.7822 C.3        1 NCZ      -0.039061
     25 H1           0.0114    11.7074     1.7008 H          1 NCZ       0.065733
     26 H7           0.7818     6.6745     3.9864 H          1 NCZ       0.063035
     27 H8          -0.1475     5.7234     1.9748 H          1 NCZ       0.065084
     28 H12          0.8214     8.0716    -1.2600 H          1 NCZ       0.067303
     29 H13          1.0074    10.9038    -2.0735 H          1 NCZ       0.067524
     30 H14          2.4616    10.3484    -4.2086 H          1 NCZ       0.060175
     31 H15          0.9737     8.4886    -5.3071 H          1 NCZ       0.060175
     32 H16         -1.0006     8.3844    -3.5516 H          1 NCZ       0.067524
     33 H6           1.0689     6.5418    -2.9334 H          1 NCZ       0.211055
     34 H5           2.8598     8.8211    -1.5288 H          1 NCZ       0.211055
     35 H2          -0.8532     5.9911    -0.0496 H          1 NCZ       0.218282
     36 H3           1.2883    11.1212     5.7014 H          1 NCZ       0.065350
     37 H171         1.0725    14.6531     4.8278 H          1 NCZ       0.053548
     38 H172         2.1332    13.3000     5.2027 H          1 NCZ       0.053548
     39 H173         0.4586    13.3258     5.8060 H          1 NCZ       0.053548
     40 H181         1.6663     9.0328     6.6452 H          1 NCZ       0.027990
     41 H182         2.1744     7.7878     5.5118 H          1 NCZ       0.027990
     42 H183         0.5024     7.8323     6.0925 H          1 NCZ       0.027990
@<TRIPOS>BOND
     1     1     2 ar  
     2     1    21 ar  
     3     1    25 1   
     4     2     3 ar  
     5     2     7 ar  
     6     3     4 ar  
     7     3    19 ar  
     8     4     5 ar  
     9     4    26 1   
    10     5     6 ar  
    11     5    27 1   
    12     6     7 ar  
    13     6    18 1   
    14     7     8 1   
    15     8     9 2   
    16     8    10 1   
    17    10    11 1   
    18    11    12 1   
    19    11    15 1   
    20    11    28 1   
    21    12    13 1   
    22    12    17 1   
    23    12    29 1   
    24    13    14 2   
    25    13    30 1   
    26    14    15 1   
    27    14    31 1   
    28    15    16 1   
    29    15    32 1   
    30    16    33 1   
    31    17    34 1   
    32    18    35 1   
    33    19    20 ar  
    34    19    24 1   
    35    20    21 ar  
    36    20    36 1   
    37    21    22 1   
    38    22    23 1   
    39    23    37 1   
    40    23    38 1   
    41    23    39 1   
    42    24    40 1   
    43    24    41 1   
    44    24    42 1   
@<TRIPOS>SUBSTRUCTURE
     1 NCZ         1 TEMP              0 ****  ****    0 ROOT
