@<TRIPOS>MOLECULE
NCZ
   42    44     1     0     0
SMALL
gas


@<TRIPOS>ATOM
      1 C1          -0.0652    11.9092     4.3293 C.ar       1 NCZ      -0.022995
      2 C6           0.3238    10.5418     4.4755 C.ar       1 NCZ       0.000513
      3 C5           0.5713    10.0604     5.8053 C.ar       1 NCZ      -0.014267
      4 C7           0.9446     8.7029     5.9819 C.ar       1 NCZ      -0.051468
      5 C8           1.0706     7.8507     4.8990 C.ar       1 NCZ      -0.030578
      6 C9           0.8380     8.2996     3.6093 C.ar       1 NCZ       0.085257
      7 C10          0.4590     9.6363     3.3576 C.ar       1 NCZ       0.084910
      8 C11          0.1580    10.0611     1.9392 C.2        1 NCZ       0.296414
      9 O3           0.5977    11.0915     1.4280 O.2        1 NCZ      -0.260548
     10 O4          -0.6957     9.2096     1.3154 O.3        1 NCZ      -0.302484
     11 C12         -0.9551     9.1872    -0.0965 C.3        1 NCZ       0.126355
     12 C13          0.2374     8.6477    -0.9084 C.3        1 NCZ       0.101861
     13 C14          0.1652     9.4632    -2.1784 C.2        1 NCZ      -0.054813
     14 C15         -0.7474    10.4501    -2.1048 C.2        1 NCZ      -0.054813
     15 C16         -1.4612    10.4830    -0.7705 C.3        1 NCZ       0.101861
     16 O6          -2.8635    10.5419    -0.9334 O.3        1 NCZ      -0.386186
     17 O5           0.1580     7.2623    -1.1679 O.3        1 NCZ      -0.386186
     18 O2           1.0129     7.3838     2.6022 O.3        1 NCZ      -0.360066
     19 C4           0.4270    10.9533     6.9125 C.ar       1 NCZ      -0.040650
     20 C3           0.0506    12.2756     6.6995 C.ar       1 NCZ      -0.028235
     21 C2          -0.1907    12.7672     5.4262 C.ar       1 NCZ       0.075431
     22 O1          -0.5496    14.0984     5.3408 O.3        1 NCZ      -0.349350
     23 C17         -0.6476    14.7126     4.0604 C.3        1 NCZ       0.042189
     24 C18          0.6798    10.4719     8.3362 C.3        1 NCZ      -0.039061
     25 H1          -0.2679    12.2941     3.3453 H          1 NCZ       0.065733
     26 H7           1.1327     8.3113     6.9701 H          1 NCZ       0.063035
     27 H8           1.3580     6.8225     5.0713 H          1 NCZ       0.065084
     28 H12         -1.7539     8.4467    -0.1334 H          1 NCZ       0.067303
     29 H13          1.1852     8.8587    -0.4100 H          1 NCZ       0.067524
     30 H14          0.8177     9.2517    -3.0137 H          1 NCZ       0.060175
     31 H15         -0.9597    11.1749    -2.8765 H          1 NCZ       0.060175
     32 H16         -1.1457    11.3776    -0.2372 H          1 NCZ       0.067524
     33 H6          -3.2746    10.5418    -0.0561 H          1 NCZ       0.211055
     34 H5           1.0671     6.9418    -1.3306 H          1 NCZ       0.211055
     35 H2           1.3574     6.5386     2.8987 H          1 NCZ       0.218282
     36 H3          -0.0540    12.9460     7.5400 H          1 NCZ       0.065350
     37 H171        -0.8874    15.7687     4.1825 H          1 NCZ       0.053548
     38 H172        -1.4420    14.2632     3.4666 H          1 NCZ       0.053548
     39 H173         0.2922    14.6481     3.5096 H          1 NCZ       0.053548
     40 H181         0.5317    11.2671     9.0679 H          1 NCZ       0.027990
     41 H182         1.7043    10.1140     8.4423 H          1 NCZ       0.027990
     42 H183        -0.0018     9.6596     8.5909 H          1 NCZ       0.027990
@<TRIPOS>BOND
     1     1     2 ar  
     2     1    21 ar  
     3     1    25 1   
     4     2     3 ar  
     5     2     7 ar  
     6     3     4 ar  
     7     3    19 ar  
     8     4     5 ar  
     9     4    26 1   
    10     5     6 ar  
    11     5    27 1   
    12     6     7 ar  
    13     6    18 1   
    14     7     8 1   
    15     8     9 2   
    16     8    10 1   
    17    10    11 1   
    18    11    12 1   
    19    11    15 1   
    20    11    28 1   
    21    12    13 1   
    22    12    17 1   
    23    12    29 1   
    24    13    14 2   
    25    13    30 1   
    26    14    15 1   
    27    14    31 1   
    28    15    16 1   
    29    15    32 1   
    30    16    33 1   
    31    17    34 1   
    32    18    35 1   
    33    19    20 ar  
    34    19    24 1   
    35    20    21 ar  
    36    20    36 1   
    37    21    22 1   
    38    22    23 1   
    39    23    37 1   
    40    23    38 1   
    41    23    39 1   
    42    24    40 1   
    43    24    41 1   
    44    24    42 1   
@<TRIPOS>SUBSTRUCTURE
     1 NCZ         1 TEMP              0 ****  ****    0 ROOT
