@<TRIPOS>MOLECULE
NCZ
   42    44     1     0     0
SMALL
gas


@<TRIPOS>ATOM
      1 C1           0.4011    10.8434    -0.4309 C.ar       1 NCZ      -0.022995
      2 C6           0.2892     9.8784    -1.4792 C.ar       1 NCZ       0.000513
      3 C5           0.7445    10.2610    -2.7855 C.ar       1 NCZ      -0.014267
      4 C7           0.6472     9.3187    -3.8416 C.ar       1 NCZ      -0.051468
      5 C8           0.1579     8.0424    -3.6158 C.ar       1 NCZ      -0.030578
      6 C9          -0.2418     7.6433    -2.3507 C.ar       1 NCZ       0.085257
      7 C10         -0.2405     8.5500    -1.2731 C.ar       1 NCZ       0.084910
      8 C11         -0.7989     8.1198     0.0491 C.2        1 NCZ       0.296414
      9 O3          -1.6285     8.7883     0.6670 O.2        1 NCZ      -0.260548
     10 O4          -0.2852     6.9539     0.4847 O.3        1 NCZ      -0.302484
     11 C12         -0.7098     6.3223     1.6948 C.3        1 NCZ       0.126355
     12 C13          0.4227     6.3829     2.7268 C.3        1 NCZ       0.101861
     13 C14          0.5579     4.9426     3.1510 C.2        1 NCZ      -0.054813
     14 C15         -0.2421     4.1138     2.4647 C.2        1 NCZ      -0.054813
     15 C16         -1.0245     4.8451     1.4092 C.3        1 NCZ       0.101861
     16 O6          -2.3893     4.5199     1.4666 O.3        1 NCZ      -0.386186
     17 O5           0.1579     7.2384     3.8190 O.3        1 NCZ      -0.386186
     18 O2          -0.6419     6.3352    -2.2201 O.3        1 NCZ      -0.360066
     19 C4           1.2840    11.5707    -2.9844 C.ar       1 NCZ      -0.040650
     20 C3           1.3496    12.4677    -1.9229 C.ar       1 NCZ      -0.028235
     21 C2           0.9209    12.1228    -0.6506 C.ar       1 NCZ       0.075431
     22 O1           1.0494    13.0937     0.3240 O.3        1 NCZ      -0.349350
     23 C17          0.6267    12.8081     1.6529 C.3        1 NCZ       0.042189
     24 C18          1.8078    11.9970    -4.3507 C.3        1 NCZ      -0.039061
     25 H1           0.0877    10.5705     0.5621 H          1 NCZ       0.065733
     26 H7           0.9808     9.5766    -4.8349 H          1 NCZ       0.063035
     27 H8           0.1338     7.3378    -4.4329 H          1 NCZ       0.065084
     28 H12         -1.6048     6.8106     2.0853 H          1 NCZ       0.067303
     29 H13          1.3621     6.6948     2.2646 H          1 NCZ       0.067524
     30 H14          1.2960     4.6340     3.8666 H          1 NCZ       0.060175
     31 H15         -0.2766     3.0382     2.5618 H          1 NCZ       0.060175
     32 H16         -0.6423     4.5511     0.4288 H          1 NCZ       0.067524
     33 H6          -2.6838     4.5573     2.3918 H          1 NCZ       0.211055
     34 H5          -0.5281     6.8352     4.3581 H          1 NCZ       0.211055
     35 H2           0.0411     5.7335    -2.5331 H          1 NCZ       0.218282
     36 H3           1.7522    13.4571    -2.0808 H          1 NCZ       0.065350
     37 H171         0.7986    13.6830     2.2796 H          1 NCZ       0.053548
     38 H172         1.1910    11.9792     2.0832 H          1 NCZ       0.053548
     39 H173        -0.4396    12.5792     1.6940 H          1 NCZ       0.053548
     40 H181         2.2073    13.0121    -4.3360 H          1 NCZ       0.027990
     41 H182         1.0113    11.9646    -5.0945 H          1 NCZ       0.027990
     42 H183         2.6134    11.3358    -4.6715 H          1 NCZ       0.027990
@<TRIPOS>BOND
     1     1     2 ar  
     2     1    21 ar  
     3     1    25 1   
     4     2     3 ar  
     5     2     7 ar  
     6     3     4 ar  
     7     3    19 ar  
     8     4     5 ar  
     9     4    26 1   
    10     5     6 ar  
    11     5    27 1   
    12     6     7 ar  
    13     6    18 1   
    14     7     8 1   
    15     8     9 2   
    16     8    10 1   
    17    10    11 1   
    18    11    12 1   
    19    11    15 1   
    20    11    28 1   
    21    12    13 1   
    22    12    17 1   
    23    12    29 1   
    24    13    14 2   
    25    13    30 1   
    26    14    15 1   
    27    14    31 1   
    28    15    16 1   
    29    15    32 1   
    30    16    33 1   
    31    17    34 1   
    32    18    35 1   
    33    19    20 ar  
    34    19    24 1   
    35    20    21 ar  
    36    20    36 1   
    37    21    22 1   
    38    22    23 1   
    39    23    37 1   
    40    23    38 1   
    41    23    39 1   
    42    24    40 1   
    43    24    41 1   
    44    24    42 1   
@<TRIPOS>SUBSTRUCTURE
     1 NCZ         1 TEMP              0 ****  ****    0 ROOT
