@<TRIPOS>MOLECULE
NCZ
   42    44     1     0     0
SMALL
gas


@<TRIPOS>ATOM
      1 C1          -0.0972    10.7326     2.0839 C.ar       1 NCZ      -0.022995
      2 C6           0.0724    10.2921     0.7394 C.ar       1 NCZ       0.000513
      3 C5           0.2840    11.2872    -0.2706 C.ar       1 NCZ      -0.014267
      4 C7           0.4886    10.8581    -1.6087 C.ar       1 NCZ      -0.051468
      5 C8           0.4549     9.5110    -1.9398 C.ar       1 NCZ      -0.030578
      6 C9           0.2092     8.5442    -0.9777 C.ar       1 NCZ       0.085257
      7 C10          0.0276     8.9017     0.3665 C.ar       1 NCZ       0.084910
      8 C11         -0.2604     7.8315     1.3624 C.2        1 NCZ       0.296414
      9 O3          -1.3873     7.3491     1.4688 O.2        1 NCZ      -0.260548
     10 O4           0.8482     7.5057     2.1011 O.3        1 NCZ      -0.302484
     11 C12          0.9228     6.5759     3.2063 C.3        1 NCZ       0.126355
     12 C13         -0.0605     5.3867     3.2889 C.3        1 NCZ       0.101861
     13 C14         -0.6422     5.5218     4.6741 C.2        1 NCZ      -0.054813
     14 C15         -0.1460     6.5638     5.3495 C.2        1 NCZ      -0.054813
     15 C16          0.9360     7.2757     4.5848 C.3        1 NCZ       0.101861
     16 O6           2.1533     7.1552     5.2974 O.3        1 NCZ      -0.386186
     17 O5           0.5435     4.1419     3.0651 O.3        1 NCZ      -0.386186
     18 O2           0.1581     7.2393    -1.4028 O.3        1 NCZ      -0.360066
     19 C4           0.2752    12.6671     0.0993 C.ar       1 NCZ      -0.040650
     20 C3           0.0781    13.0343     1.4285 C.ar       1 NCZ      -0.028235
     21 C2          -0.0950    12.0865     2.4265 C.ar       1 NCZ       0.075431
     22 O1          -0.2654    12.5575     3.7151 O.3        1 NCZ      -0.349350
     23 C17         -0.2076    11.6428     4.8044 C.3        1 NCZ       0.042189
     24 C18          0.4707    13.7520    -0.9518 C.3        1 NCZ      -0.039061
     25 H1          -0.2346     9.9932     2.8526 H          1 NCZ       0.065733
     26 H7           0.6678    11.5810    -2.3910 H          1 NCZ       0.063035
     27 H8           0.6173     9.2123    -2.9650 H          1 NCZ       0.065084
     28 H12          1.9195     6.1648     3.0411 H          1 NCZ       0.067303
     29 H13         -0.8837     5.4238     2.5858 H          1 NCZ       0.067524
     30 H14         -1.4318     4.8813     5.0308 H          1 NCZ       0.060175
     31 H15         -0.4509     6.8805     6.3362 H          1 NCZ       0.060175
     32 H16          0.6768     8.3298     4.4724 H          1 NCZ       0.067524
     33 H6           2.2721     6.2189     5.4970 H          1 NCZ       0.211055
     34 H5           1.3764     4.0953     3.5464 H          1 NCZ       0.211055
     35 H2           1.0604     6.9416    -1.6259 H          1 NCZ       0.218282
     36 H3           0.0639    14.0798     1.7013 H          1 NCZ       0.065350
     37 H171        -0.2641    12.1949     5.7429 H          1 NCZ       0.053548
     38 H172         0.7291    11.0833     4.8088 H          1 NCZ       0.053548
     39 H173        -1.0416    10.9405     4.7881 H          1 NCZ       0.053548
     40 H181         0.4395    14.7518    -0.5165 H          1 NCZ       0.027990
     41 H182        -0.3161    13.6957    -1.7043 H          1 NCZ       0.027990
     42 H183         1.4347    13.6372    -1.4466 H          1 NCZ       0.027990
@<TRIPOS>BOND
     1     1     2 ar  
     2     1    21 ar  
     3     1    25 1   
     4     2     3 ar  
     5     2     7 ar  
     6     3     4 ar  
     7     3    19 ar  
     8     4     5 ar  
     9     4    26 1   
    10     5     6 ar  
    11     5    27 1   
    12     6     7 ar  
    13     6    18 1   
    14     7     8 1   
    15     8     9 2   
    16     8    10 1   
    17    10    11 1   
    18    11    12 1   
    19    11    15 1   
    20    11    28 1   
    21    12    13 1   
    22    12    17 1   
    23    12    29 1   
    24    13    14 2   
    25    13    30 1   
    26    14    15 1   
    27    14    31 1   
    28    15    16 1   
    29    15    32 1   
    30    16    33 1   
    31    17    34 1   
    32    18    35 1   
    33    19    20 ar  
    34    19    24 1   
    35    20    21 ar  
    36    20    36 1   
    37    21    22 1   
    38    22    23 1   
    39    23    37 1   
    40    23    38 1   
    41    23    39 1   
    42    24    40 1   
    43    24    41 1   
    44    24    42 1   
@<TRIPOS>SUBSTRUCTURE
     1 NCZ         1 TEMP              0 ****  ****    0 ROOT
