@<TRIPOS>MOLECULE
NCZ
   42    44     1     0     0
SMALL
gas


@<TRIPOS>ATOM
      1 C1           0.4079    10.1994    -2.9754 C.ar       1 NCZ      -0.022995
      2 C6           0.0424     8.8293    -2.8047 C.ar       1 NCZ       0.000513
      3 C5           0.0393     8.3087    -1.4673 C.ar       1 NCZ      -0.014267
      4 C7          -0.2857     6.9435    -1.2692 C.ar       1 NCZ      -0.051468
      5 C8          -0.6395     6.1346    -2.3339 C.ar       1 NCZ      -0.030578
      6 C9          -0.6419     6.6205    -3.6324 C.ar       1 NCZ       0.085257
      7 C10         -0.3201     7.9631    -3.9037 C.ar       1 NCZ       0.084910
      8 C11         -0.4116     8.4590    -5.3123 C.2        1 NCZ       0.296414
      9 O3          -1.0626     9.4565    -5.6346 O.2        1 NCZ      -0.260548
     10 O4           0.3140     7.7066    -6.1845 O.3        1 NCZ      -0.302484
     11 C12          0.2988     7.9517    -7.5972 C.3        1 NCZ       0.126355
     12 C13         -1.0664     7.6515    -8.2438 C.3        1 NCZ       0.101861
     13 C14         -0.6786     6.9990    -9.5498 C.2        1 NCZ      -0.054813
     14 C15          0.6244     6.6693    -9.5734 C.2        1 NCZ      -0.054813
     15 C16          1.3258     7.0473    -8.2880 C.3        1 NCZ       0.101861
     16 O6           2.5588     7.6906    -8.5323 O.3        1 NCZ      -0.386186
     17 O5          -1.8414     8.8160    -8.4400 O.3        1 NCZ      -0.386186
     18 O2          -1.0420     5.7418    -4.6092 O.3        1 NCZ      -0.360066
     19 C4           0.3593     9.1709    -0.3745 C.ar       1 NCZ      -0.040650
     20 C3           0.6929    10.5015    -0.6074 C.ar       1 NCZ      -0.028235
     21 C2           0.7268    11.0241    -1.9016 C.ar       1 NCZ       0.075431
     22 O1           1.0578    12.3315    -2.2041 O.3        1 NCZ      -0.349350
     23 C17          1.3069    13.2472    -1.1431 C.3        1 NCZ       0.042189
     24 C18          0.3380     8.6423     1.0557 C.3        1 NCZ      -0.039061
     25 H1           0.4459    10.6293    -3.9636 H          1 NCZ       0.065733
     26 H7          -0.2642     6.5141    -0.2791 H          1 NCZ       0.063035
     27 H8          -0.8874     5.1015    -2.1351 H          1 NCZ       0.065084
     28 H12          0.5703     8.9967    -7.7640 H          1 NCZ       0.067303
     29 H13         -1.6283     6.9302    -7.6462 H          1 NCZ       0.067524
     30 H14         -1.4020     6.8100   -10.3288 H          1 NCZ       0.060175
     31 H15          1.1428     6.1628   -10.3744 H          1 NCZ       0.060175
     32 H16          1.4919     6.1420    -7.7028 H          1 NCZ       0.067524
     33 H6           3.0222     7.8055    -7.6975 H          1 NCZ       0.211055
     34 H5          -2.0406     9.1933    -7.5774 H          1 NCZ       0.211055
     35 H2          -1.2060     4.8686    -4.2332 H          1 NCZ       0.218282
     36 H3           0.9370    11.1226     0.2399 H          1 NCZ       0.065350
     37 H171         1.5388    14.2271    -1.5598 H          1 NCZ       0.053548
     38 H172         2.1569    12.9361    -0.5343 H          1 NCZ       0.053548
     39 H173         0.4315    13.3617    -0.5019 H          1 NCZ       0.053548
     40 H181         0.5585     9.4224     1.7847 H          1 NCZ       0.027990
     41 H182         1.0800     7.8505     1.1759 H          1 NCZ       0.027990
     42 H183        -0.6441     8.2366     1.2999 H          1 NCZ       0.027990
@<TRIPOS>BOND
     1     1     2 ar  
     2     1    21 ar  
     3     1    25 1   
     4     2     3 ar  
     5     2     7 ar  
     6     3     4 ar  
     7     3    19 ar  
     8     4     5 ar  
     9     4    26 1   
    10     5     6 ar  
    11     5    27 1   
    12     6     7 ar  
    13     6    18 1   
    14     7     8 1   
    15     8     9 2   
    16     8    10 1   
    17    10    11 1   
    18    11    12 1   
    19    11    15 1   
    20    11    28 1   
    21    12    13 1   
    22    12    17 1   
    23    12    29 1   
    24    13    14 2   
    25    13    30 1   
    26    14    15 1   
    27    14    31 1   
    28    15    16 1   
    29    15    32 1   
    30    16    33 1   
    31    17    34 1   
    32    18    35 1   
    33    19    20 ar  
    34    19    24 1   
    35    20    21 ar  
    36    20    36 1   
    37    21    22 1   
    38    22    23 1   
    39    23    37 1   
    40    23    38 1   
    41    23    39 1   
    42    24    40 1   
    43    24    41 1   
    44    24    42 1   
@<TRIPOS>SUBSTRUCTURE
     1 NCZ         1 TEMP              0 ****  ****    0 ROOT
