@<TRIPOS>MOLECULE
NCZ
   42    44     1     0     0
SMALL
gas


@<TRIPOS>ATOM
      1 C1          -0.3544     9.8660    -0.7353 C.ar       1 NCZ      -0.022995
      2 C6           0.0398    11.1606    -1.1851 C.ar       1 NCZ       0.000513
      3 C5           0.3363    12.1543    -0.1955 C.ar       1 NCZ      -0.014267
      4 C7           0.7961    13.4261    -0.6298 C.ar       1 NCZ      -0.051468
      5 C8           0.9580    13.7025    -1.9807 C.ar       1 NCZ      -0.030578
      6 C9           0.6388    12.7587    -2.9468 C.ar       1 NCZ       0.085257
      7 C10          0.1562    11.4944    -2.5786 C.ar       1 NCZ       0.084910
      8 C11         -0.2615    10.5309    -3.6339 C.2        1 NCZ       0.296414
      9 O3          -1.4416    10.2341    -3.8342 O.2        1 NCZ      -0.260548
     10 O4           0.8019     9.9411    -4.2482 O.3        1 NCZ      -0.302484
     11 C12          0.6632     8.8859    -5.2174 C.3        1 NCZ       0.126355
     12 C13         -0.0922     9.2934    -6.4983 C.3        1 NCZ       0.101861
     13 C14         -1.0858     8.1658    -6.6802 C.2        1 NCZ      -0.054813
     14 C15         -1.0289     7.2635    -5.6840 C.2        1 NCZ      -0.054813
     15 C16          0.0328     7.5947    -4.6576 C.3        1 NCZ       0.101861
     16 O6           0.9580     6.5419    -4.5335 O.3        1 NCZ      -0.386186
     17 O5           0.7586     9.4489    -7.6172 O.3        1 NCZ      -0.386186
     18 O2           0.8015    13.1210    -4.2615 O.3        1 NCZ      -0.360066
     19 C4           0.1611    11.8328     1.1879 C.ar       1 NCZ      -0.040650
     20 C3          -0.2409    10.5531     1.5628 C.ar       1 NCZ      -0.028235
     21 C2          -0.4641     9.5615     0.6194 C.ar       1 NCZ       0.075431
     22 O1          -0.8067     8.3057     1.0676 O.3        1 NCZ      -0.349350
     23 C17         -0.1589     7.2051     0.4335 C.3        1 NCZ       0.042189
     24 C18          0.4231    12.8781     2.2647 C.3        1 NCZ      -0.039061
     25 H1          -0.5585     9.0917    -1.4563 H          1 NCZ       0.065733
     26 H7           1.0400    14.1915     0.0923 H          1 NCZ       0.063035
     27 H8           1.3228    14.6764    -2.2736 H          1 NCZ       0.065084
     28 H12          1.6967     8.6629    -5.4850 H          1 NCZ       0.067303
     29 H13         -0.6453    10.2230    -6.3548 H          1 NCZ       0.067524
     30 H14         -1.7680     8.1419    -7.5179 H          1 NCZ       0.060175
     31 H15         -1.6528     6.3870    -5.5852 H          1 NCZ       0.060175
     32 H16         -0.4387     7.7608    -3.6880 H          1 NCZ       0.067524
     33 H6           1.5924     6.7148    -3.8084 H          1 NCZ       0.211055
     34 H5           1.3483    10.1895    -7.4529 H          1 NCZ       0.211055
     35 H2           1.1891    13.9931    -4.3561 H          1 NCZ       0.218282
     36 H3          -0.3487    10.3068     2.6086 H          1 NCZ       0.065350
     37 H171        -0.3620     6.2932     0.9971 H          1 NCZ       0.053548
     38 H172         0.9262     7.3413     0.4040 H          1 NCZ       0.053548
     39 H173        -0.5198     7.0440    -0.5840 H          1 NCZ       0.053548
     40 H181         0.2271    12.4888     3.2645 H          1 NCZ       0.027990
     41 H182        -0.2188    13.7477     2.1162 H          1 NCZ       0.027990
     42 H183         1.4644    13.2017     2.2356 H          1 NCZ       0.027990
@<TRIPOS>BOND
     1     1     2 ar  
     2     1    21 ar  
     3     1    25 1   
     4     2     3 ar  
     5     2     7 ar  
     6     3     4 ar  
     7     3    19 ar  
     8     4     5 ar  
     9     4    26 1   
    10     5     6 ar  
    11     5    27 1   
    12     6     7 ar  
    13     6    18 1   
    14     7     8 1   
    15     8     9 2   
    16     8    10 1   
    17    10    11 1   
    18    11    12 1   
    19    11    15 1   
    20    11    28 1   
    21    12    13 1   
    22    12    17 1   
    23    12    29 1   
    24    13    14 2   
    25    13    30 1   
    26    14    15 1   
    27    14    31 1   
    28    15    16 1   
    29    15    32 1   
    30    16    33 1   
    31    17    34 1   
    32    18    35 1   
    33    19    20 ar  
    34    19    24 1   
    35    20    21 ar  
    36    20    36 1   
    37    21    22 1   
    38    22    23 1   
    39    23    37 1   
    40    23    38 1   
    41    23    39 1   
    42    24    40 1   
    43    24    41 1   
    44    24    42 1   
@<TRIPOS>SUBSTRUCTURE
     1 NCZ         1 TEMP              0 ****  ****    0 ROOT
