@<TRIPOS>MOLECULE
NCZ
   42    44     1     0     0
SMALL
gas


@<TRIPOS>ATOM
      1 C1           0.1467    10.9011    -0.7035 C.ar       1 NCZ      -0.022995
      2 C6           0.3640    11.9119    -1.6924 C.ar       1 NCZ       0.000513
      3 C5           0.3085    13.2800    -1.2634 C.ar       1 NCZ      -0.014267
      4 C7           0.5273    14.3018    -2.2233 C.ar       1 NCZ      -0.051468
      5 C8           0.8022    13.9928    -3.5461 C.ar       1 NCZ      -0.030578
      6 C9           0.8615    12.6757    -3.9762 C.ar       1 NCZ       0.085257
      7 C10          0.6373    11.6147    -3.0816 C.ar       1 NCZ       0.084910
      8 C11          0.7079    10.2021    -3.5763 C.2        1 NCZ       0.296414
      9 O3           1.3773     9.3418    -3.0153 O.2        1 NCZ      -0.260548
     10 O4          -0.1208     9.9610    -4.6294 O.3        1 NCZ      -0.302484
     11 C12         -0.4061     8.6406    -5.1267 C.3        1 NCZ       0.126355
     12 C13          0.7996     7.7381    -5.4696 C.3        1 NCZ       0.101861
     13 C14          0.4369     7.1800    -6.8269 C.2        1 NCZ      -0.054813
     14 C15         -0.6934     7.7163    -7.3151 C.2        1 NCZ      -0.054813
     15 C16         -1.2718     8.7629    -6.3914 C.3        1 NCZ       0.101861
     16 O6          -2.6420     8.5417    -6.1333 O.3        1 NCZ      -0.386186
     17 O5           0.9578     6.6911    -4.5337 O.3        1 NCZ      -0.386186
     18 O2           1.1742    12.4697    -5.2975 O.3        1 NCZ      -0.360066
     19 C4           0.0405    13.5729     0.1110 C.ar       1 NCZ      -0.040650
     20 C3          -0.1480    12.5392     1.0243 C.ar       1 NCZ      -0.028235
     21 C2          -0.0846    11.2084     0.6401 C.ar       1 NCZ       0.075431
     22 O1          -0.2527    10.2664     1.6377 O.3        1 NCZ      -0.349350
     23 C17         -0.0859     8.8840     1.3279 C.3        1 NCZ       0.042189
     24 C18         -0.0335    15.0156     0.5963 C.3        1 NCZ      -0.039061
     25 H1           0.1764     9.8651    -0.9945 H          1 NCZ       0.065733
     26 H7           0.4934    15.3402    -1.9299 H          1 NCZ       0.063035
     27 H8           0.9787    14.7988    -4.2433 H          1 NCZ       0.065084
     28 H12         -0.9907     8.1567    -4.3417 H          1 NCZ       0.067303
     29 H13          1.7197     8.3188    -5.5547 H          1 NCZ       0.067524
     30 H14          1.0529     6.4389    -7.3160 H          1 NCZ       0.060175
     31 H15         -1.1431     7.4844    -8.2696 H          1 NCZ       0.060175
     32 H16         -1.1412     9.7420    -6.8572 H          1 NCZ       0.067524
     33 H6          -3.0997     8.3665    -6.9627 H          1 NCZ       0.211055
     34 H5           1.5992     6.9418    -3.8391 H          1 NCZ       0.211055
     35 H2           1.3504    13.2885    -5.7641 H          1 NCZ       0.218282
     36 H3          -0.3381    12.7683     2.0624 H          1 NCZ       0.065350
     37 H171        -0.1848     8.2944     2.2392 H          1 NCZ       0.053548
     38 H172         0.9008     8.6746     0.9108 H          1 NCZ       0.053548
     39 H173        -0.8490     8.5373     0.6294 H          1 NCZ       0.053548
     40 H181        -0.2466    15.0743     1.6645 H          1 NCZ       0.027990
     41 H182        -0.8261    15.5539     0.0754 H          1 NCZ       0.027990
     42 H183         0.9126    15.5282     0.4211 H          1 NCZ       0.027990
@<TRIPOS>BOND
     1     1     2 ar  
     2     1    21 ar  
     3     1    25 1   
     4     2     3 ar  
     5     2     7 ar  
     6     3     4 ar  
     7     3    19 ar  
     8     4     5 ar  
     9     4    26 1   
    10     5     6 ar  
    11     5    27 1   
    12     6     7 ar  
    13     6    18 1   
    14     7     8 1   
    15     8     9 2   
    16     8    10 1   
    17    10    11 1   
    18    11    12 1   
    19    11    15 1   
    20    11    28 1   
    21    12    13 1   
    22    12    17 1   
    23    12    29 1   
    24    13    14 2   
    25    13    30 1   
    26    14    15 1   
    27    14    31 1   
    28    15    16 1   
    29    15    32 1   
    30    16    33 1   
    31    17    34 1   
    32    18    35 1   
    33    19    20 ar  
    34    19    24 1   
    35    20    21 ar  
    36    20    36 1   
    37    21    22 1   
    38    22    23 1   
    39    23    37 1   
    40    23    38 1   
    41    23    39 1   
    42    24    40 1   
    43    24    41 1   
    44    24    42 1   
@<TRIPOS>SUBSTRUCTURE
     1 NCZ         1 TEMP              0 ****  ****    0 ROOT
