@<TRIPOS>MOLECULE
NCZ
   42    44     1     0     0
SMALL
gas


@<TRIPOS>ATOM
      1 C1          -0.2966    12.1921    -0.6909 C.ar       1 NCZ      -0.022995
      2 C6          -0.1491    10.8792    -0.1541 C.ar       1 NCZ       0.000513
      3 C5          -0.0106    10.7457     1.2664 C.ar       1 NCZ      -0.014267
      4 C7           0.1528     9.4444     1.8123 C.ar       1 NCZ      -0.051468
      5 C8           0.1871     8.3251     0.9947 C.ar       1 NCZ      -0.030578
      6 C9           0.0727     8.4438    -0.3809 C.ar       1 NCZ       0.085257
      7 C10         -0.1106     9.7019    -0.9781 C.ar       1 NCZ       0.084910
      8 C11         -0.2181     9.7733    -2.4598 C.2        1 NCZ       0.296414
      9 O3          -1.2576    10.0665    -3.0521 O.2        1 NCZ      -0.260548
     10 O4           0.9825     9.5365    -3.0490 O.3        1 NCZ      -0.302484
     11 C12          1.1757     9.3598    -4.4594 C.3        1 NCZ       0.126355
     12 C13          0.7539    10.5294    -5.3670 C.3        1 NCZ       0.101861
     13 C14          0.3740     9.8042    -6.6391 C.2        1 NCZ      -0.054813
     14 C15          0.2377     8.4783    -6.4424 C.2        1 NCZ      -0.054813
     15 C16          0.5216     8.0837    -5.0092 C.3        1 NCZ       0.101861
     16 O6           1.3578     6.9506    -4.9333 O.3        1 NCZ      -0.386186
     17 O5           1.7792    11.4751    -5.5766 O.3        1 NCZ      -0.386186
     18 O2           0.1582     7.2900    -1.1209 O.3        1 NCZ      -0.360066
     19 C4          -0.0278    11.9210     2.0809 C.ar       1 NCZ      -0.040650
     20 C3          -0.1617    13.1782     1.4955 C.ar       1 NCZ      -0.028235
     21 C2          -0.2868    13.3251     0.1125 C.ar       1 NCZ       0.075431
     22 O1          -0.4090    14.5364    -0.5400 O.3        1 NCZ      -0.349350
     23 C17         -0.2368    15.7458     0.1916 C.3        1 NCZ       0.042189
     24 C18          0.1227    11.8135     3.5938 C.3        1 NCZ      -0.039061
     25 H1          -0.3993    12.3303    -1.7562 H          1 NCZ       0.065733
     26 H7           0.2697     9.3092     2.8773 H          1 NCZ       0.063035
     27 H8           0.3342     7.3484     1.4326 H          1 NCZ       0.065084
     28 H12          2.2570     9.2371    -4.5428 H          1 NCZ       0.067303
     29 H13         -0.1293    11.0474    -4.9987 H          1 NCZ       0.067524
     30 H14          0.2034    10.3329    -7.5646 H          1 NCZ       0.060175
     31 H15         -0.0582     7.7510    -7.1837 H          1 NCZ       0.060175
     32 H16         -0.4209     7.8680    -4.5035 H          1 NCZ       0.067524
     33 H6           1.8058     6.9414    -4.0616 H          1 NCZ       0.211055
     34 H5           1.9967    11.8875    -4.7357 H          1 NCZ       0.211055
     35 H2           1.0694     6.9419    -1.1090 H          1 NCZ       0.218282
     36 H3          -0.1674    14.0487     2.1331 H          1 NCZ       0.065350
     37 H171        -0.2778    16.5890    -0.4991 H          1 NCZ       0.053548
     38 H172         0.7321    15.7791     0.6924 H          1 NCZ       0.053548
     39 H173        -1.0272    15.8920     0.9277 H          1 NCZ       0.053548
     40 H181         0.0365    12.7853     4.0820 H          1 NCZ       0.027990
     41 H182         1.1005    11.4014     3.8475 H          1 NCZ       0.027990
     42 H183        -0.6460    11.1643     4.0128 H          1 NCZ       0.027990
@<TRIPOS>BOND
     1     1     2 ar  
     2     1    21 ar  
     3     1    25 1   
     4     2     3 ar  
     5     2     7 ar  
     6     3     4 ar  
     7     3    19 ar  
     8     4     5 ar  
     9     4    26 1   
    10     5     6 ar  
    11     5    27 1   
    12     6     7 ar  
    13     6    18 1   
    14     7     8 1   
    15     8     9 2   
    16     8    10 1   
    17    10    11 1   
    18    11    12 1   
    19    11    15 1   
    20    11    28 1   
    21    12    13 1   
    22    12    17 1   
    23    12    29 1   
    24    13    14 2   
    25    13    30 1   
    26    14    15 1   
    27    14    31 1   
    28    15    16 1   
    29    15    32 1   
    30    16    33 1   
    31    17    34 1   
    32    18    35 1   
    33    19    20 ar  
    34    19    24 1   
    35    20    21 ar  
    36    20    36 1   
    37    21    22 1   
    38    22    23 1   
    39    23    37 1   
    40    23    38 1   
    41    23    39 1   
    42    24    40 1   
    43    24    41 1   
    44    24    42 1   
@<TRIPOS>SUBSTRUCTURE
     1 NCZ         1 TEMP              0 ****  ****    0 ROOT
