@<TRIPOS>MOLECULE
NCZ
   42    44     1     0     0
SMALL
gas


@<TRIPOS>ATOM
      1 C1          -0.2420    10.9559     2.2998 C.ar       1 NCZ      -0.022995
      2 C6           0.1656    10.7104     0.9593 C.ar       1 NCZ       0.000513
      3 C5           0.8032    11.7777     0.2491 C.ar       1 NCZ      -0.014267
      4 C7           1.3580    11.4927    -1.0277 C.ar       1 NCZ      -0.051468
      5 C8           1.2980    10.2120    -1.5659 C.ar       1 NCZ      -0.030578
      6 C9           0.6092     9.1963    -0.9181 C.ar       1 NCZ       0.085257
      7 C10         -0.0159     9.4394     0.3131 C.ar       1 NCZ       0.084910
      8 C11         -0.8928     8.3907     0.8997 C.2        1 NCZ       0.296414
      9 O3          -2.0988     8.3160     0.6666 O.2        1 NCZ      -0.260548
     10 O4          -0.2407     7.5987     1.7671 O.3        1 NCZ      -0.302484
     11 C12         -0.9183     6.5480     2.4676 C.3        1 NCZ       0.126355
     12 C13         -0.0367     6.1042     3.6327 C.3        1 NCZ       0.101861
     13 C14          0.2457     4.6757     3.2853 C.2        1 NCZ      -0.054813
     14 C15         -0.4393     4.2221     2.2263 C.2        1 NCZ      -0.054813
     15 C16         -1.2050     5.3350     1.5659 C.3        1 NCZ       0.101861
     16 O6          -2.5766     5.0546     1.4666 O.3        1 NCZ      -0.386186
     17 O5          -0.6420     6.1923     4.9076 O.3        1 NCZ      -0.386186
     18 O2           0.5580     7.9635    -1.5217 O.3        1 NCZ      -0.360066
     19 C4           0.8609    13.0739     0.8583 C.ar       1 NCZ      -0.040650
     20 C3           0.3861    13.2625     2.1539 C.ar       1 NCZ      -0.028235
     21 C2          -0.1238    12.2103     2.8960 C.ar       1 NCZ       0.075431
     22 O1          -0.5089    12.4723     4.1942 O.3        1 NCZ      -0.349350
     23 C17         -0.3232    11.4416     5.1619 C.3        1 NCZ       0.042189
     24 C18          1.4781    14.2605     0.1360 C.3        1 NCZ      -0.039061
     25 H1          -0.6420    10.1421     2.8724 H          1 NCZ       0.065733
     26 H7           1.8748    12.2623    -1.5793 H          1 NCZ       0.063035
     27 H8           1.7688    10.0086    -2.5171 H          1 NCZ       0.065084
     28 H12         -1.8555     6.9419     2.8584 H          1 NCZ       0.067303
     29 H13          0.9045     6.6587     3.6471 H          1 NCZ       0.067524
     30 H14          0.9588     4.1418     3.8666 H          1 NCZ       0.060175
     31 H15         -0.3871     3.2294     1.8035 H          1 NCZ       0.060175
     32 H16         -0.8021     5.4901     0.5625 H          1 NCZ       0.067524
     33 H6          -2.9213     4.9418     2.3702 H          1 NCZ       0.211055
     34 H5          -1.0778     7.0428     5.0219 H          1 NCZ       0.211055
     35 H2           1.4397     7.5946    -1.7337 H          1 NCZ       0.218282
     36 H3           0.4511    14.2372     2.6151 H          1 NCZ       0.065350
     37 H171        -0.4642    11.8593     6.1587 H          1 NCZ       0.053548
     38 H172         0.6854    11.0257     5.1203 H          1 NCZ       0.053548
     39 H173        -1.0425    10.6308     5.0479 H          1 NCZ       0.053548
     40 H181         1.1235    15.2051     0.5505 H          1 NCZ       0.027990
     41 H182         1.2368    14.2710    -0.9267 H          1 NCZ       0.027990
     42 H183         2.5575    14.2289     0.2666 H          1 NCZ       0.027990
@<TRIPOS>BOND
     1     1     2 ar  
     2     1    21 ar  
     3     1    25 1   
     4     2     3 ar  
     5     2     7 ar  
     6     3     4 ar  
     7     3    19 ar  
     8     4     5 ar  
     9     4    26 1   
    10     5     6 ar  
    11     5    27 1   
    12     6     7 ar  
    13     6    18 1   
    14     7     8 1   
    15     8     9 2   
    16     8    10 1   
    17    10    11 1   
    18    11    12 1   
    19    11    15 1   
    20    11    28 1   
    21    12    13 1   
    22    12    17 1   
    23    12    29 1   
    24    13    14 2   
    25    13    30 1   
    26    14    15 1   
    27    14    31 1   
    28    15    16 1   
    29    15    32 1   
    30    16    33 1   
    31    17    34 1   
    32    18    35 1   
    33    19    20 ar  
    34    19    24 1   
    35    20    21 ar  
    36    20    36 1   
    37    21    22 1   
    38    22    23 1   
    39    23    37 1   
    40    23    38 1   
    41    23    39 1   
    42    24    40 1   
    43    24    41 1   
    44    24    42 1   
@<TRIPOS>SUBSTRUCTURE
     1 NCZ         1 TEMP              0 ****  ****    0 ROOT
