@<TRIPOS>MOLECULE
NCZ
   42    44     1     0     0
SMALL
gas


@<TRIPOS>ATOM
      1 C1           0.5577     9.4346     4.7194 C.ar       1 NCZ      -0.022995
      2 C6           0.5976    10.7835     4.2311 C.ar       1 NCZ       0.000513
      3 C5           0.9900    11.7898     5.1828 C.ar       1 NCZ      -0.014267
      4 C7           1.0036    13.1451     4.7802 C.ar       1 NCZ      -0.051468
      5 C8           0.6550    13.5059     3.4965 C.ar       1 NCZ      -0.030578
      6 C9           0.3073    12.5574     2.5525 C.ar       1 NCZ       0.085257
      7 C10          0.2754    11.1725     2.8571 C.ar       1 NCZ       0.084910
      8 C11         -0.0421    10.1444     1.7676 C.2        1 NCZ       0.296414
      9 O3           0.1579     8.9363     1.8685 O.2        1 NCZ      -0.260548
     10 O4          -0.5740    10.6751     0.6353 O.3        1 NCZ      -0.302484
     11 C12         -0.9976     9.8926    -0.4889 C.3        1 NCZ       0.126355
     12 C13          0.1223     9.1255    -1.2266 C.3        1 NCZ       0.101861
     13 C14         -0.2420     9.3437    -2.6787 C.2        1 NCZ      -0.054813
     14 C15         -1.2114    10.2655    -2.8273 C.2        1 NCZ      -0.054813
     15 C16         -1.6382    10.8535    -1.4999 C.3        1 NCZ       0.101861
     16 O6          -3.0419    10.9417    -1.3389 O.3        1 NCZ      -0.386186
     17 O5           0.1584     7.7471    -0.9036 O.3        1 NCZ      -0.386186
     18 O2           0.0261    13.0752     1.3144 O.3        1 NCZ      -0.360066
     19 C4           1.3581    11.4131     6.5139 C.ar       1 NCZ      -0.040650
     20 C3           1.3081    10.0809     6.9024 C.ar       1 NCZ      -0.028235
     21 C2           0.8983     9.0889     6.0304 C.ar       1 NCZ       0.075431
     22 O1           0.8506     7.8073     6.5448 O.3        1 NCZ      -0.349350
     23 C17          0.3635     6.7404     5.7356 C.3        1 NCZ       0.042189
     24 C18          1.8069    12.4603     7.5280 C.3        1 NCZ      -0.039061
     25 H1           0.2246     8.6373     4.0871 H          1 NCZ       0.065733
     26 H7           1.2843    13.9224     5.4749 H          1 NCZ       0.063035
     27 H8           0.6722    14.5508     3.2215 H          1 NCZ       0.065084
     28 H12         -1.7495     9.1867    -0.1292 H          1 NCZ       0.067303
     29 H13          1.0966     9.5755    -1.0257 H          1 NCZ       0.067524
     30 H14          0.2641     8.8085    -3.4696 H          1 NCZ       0.060175
     31 H15         -1.6214    10.6098    -3.7654 H          1 NCZ       0.060175
     32 H16         -1.2055    11.8537    -1.4240 H          1 NCZ       0.067524
     33 H6          -3.4547    11.2242    -2.1613 H          1 NCZ       0.211055
     34 H5           1.0449     7.3906    -1.0947 H          1 NCZ       0.211055
     35 H2          -0.2427    12.3724     0.7135 H          1 NCZ       0.218282
     36 H3           1.5762     9.8026     7.9109 H          1 NCZ       0.065350
     37 H171         0.3090     5.8315     6.3348 H          1 NCZ       0.053548
     38 H172         1.0279     6.5453     4.8924 H          1 NCZ       0.053548
     39 H173        -0.6420     6.9372     5.3626 H          1 NCZ       0.053548
     40 H181         2.0855    12.0105     8.4817 H          1 NCZ       0.027990
     41 H182         1.0042    13.1729     7.7221 H          1 NCZ       0.027990
     42 H183         2.6759    13.0040     7.1577 H          1 NCZ       0.027990
@<TRIPOS>BOND
     1     1     2 ar  
     2     1    21 ar  
     3     1    25 1   
     4     2     3 ar  
     5     2     7 ar  
     6     3     4 ar  
     7     3    19 ar  
     8     4     5 ar  
     9     4    26 1   
    10     5     6 ar  
    11     5    27 1   
    12     6     7 ar  
    13     6    18 1   
    14     7     8 1   
    15     8     9 2   
    16     8    10 1   
    17    10    11 1   
    18    11    12 1   
    19    11    15 1   
    20    11    28 1   
    21    12    13 1   
    22    12    17 1   
    23    12    29 1   
    24    13    14 2   
    25    13    30 1   
    26    14    15 1   
    27    14    31 1   
    28    15    16 1   
    29    15    32 1   
    30    16    33 1   
    31    17    34 1   
    32    18    35 1   
    33    19    20 ar  
    34    19    24 1   
    35    20    21 ar  
    36    20    36 1   
    37    21    22 1   
    38    22    23 1   
    39    23    37 1   
    40    23    38 1   
    41    23    39 1   
    42    24    40 1   
    43    24    41 1   
    44    24    42 1   
@<TRIPOS>SUBSTRUCTURE
     1 NCZ         1 TEMP              0 ****  ****    0 ROOT
