@<TRIPOS>MOLECULE
NCZ
   42    44     1     0     0
SMALL
gas


@<TRIPOS>ATOM
      1 C1           0.1573     9.9928     2.2351 C.ar       1 NCZ      -0.022995
      2 C6           0.2607     8.6111     2.5928 C.ar       1 NCZ       0.000513
      3 C5           0.8074     8.3092     3.8870 C.ar       1 NCZ      -0.014267
      4 C7           0.9477     6.9498     4.2665 C.ar       1 NCZ      -0.051468
      5 C8           0.4530     5.9353     3.4666 C.ar       1 NCZ      -0.030578
      6 C9          -0.1899     6.2178     2.2720 C.ar       1 NCZ       0.085257
      7 C10         -0.2615     7.5355     1.7791 C.ar       1 NCZ       0.084910
      8 C11         -1.1176     7.7955     0.5723 C.2        1 NCZ       0.296414
      9 O3          -2.2422     7.3114     0.4566 O.2        1 NCZ      -0.260548
     10 O4          -0.5890     8.6068    -0.3841 O.3        1 NCZ      -0.302484
     11 C12          0.4686     8.1875    -1.2613 C.3        1 NCZ       0.126355
     12 C13          1.2937     9.4064    -1.7234 C.3        1 NCZ       0.101861
     13 C14          1.1663     9.3984    -3.2311 C.2        1 NCZ      -0.054813
     14 C15          0.4423     8.3591    -3.6747 C.2        1 NCZ      -0.054813
     15 C16         -0.0999     7.5301    -2.5337 C.3        1 NCZ       0.101861
     16 O6           0.1579     6.1517    -2.6558 O.3        1 NCZ      -0.386186
     17 O5           2.6456     9.3415    -1.3348 O.3        1 NCZ      -0.386186
     18 O2          -0.7348     5.1455     1.6087 O.3        1 NCZ      -0.360066
     19 C4           1.1454     9.3805     4.7751 C.ar       1 NCZ      -0.040650
     20 C3           0.9552    10.7045     4.3860 C.ar       1 NCZ      -0.028235
     21 C2           0.4701    11.0214     3.1164 C.ar       1 NCZ       0.075431
     22 O1           0.2583    12.3062     2.6556 O.3        1 NCZ      -0.349350
     23 C17          0.5840    13.4103     3.4915 C.3        1 NCZ       0.042189
     24 C18          1.6903     9.0858     6.1683 C.3        1 NCZ      -0.039061
     25 H1          -0.2412    10.2811     1.2772 H          1 NCZ       0.065733
     26 H7           1.3895     6.6841     5.2154 H          1 NCZ       0.063035
     27 H8           0.5395     4.9150     3.8125 H          1 NCZ       0.065084
     28 H12          1.0981     7.4880    -0.7108 H          1 NCZ       0.067303
     29 H13          0.8624    10.3302    -1.3342 H          1 NCZ       0.067524
     30 H14          1.6437    10.1500    -3.8418 H          1 NCZ       0.060175
     31 H15          0.2214     8.1274    -4.7054 H          1 NCZ       0.060175
     32 H16         -1.1618     7.6616    -2.5833 H          1 NCZ       0.067524
     33 H6           1.1220     6.0542    -2.5347 H          1 NCZ       0.211055
     34 H5           2.9568     8.4298    -1.5253 H          1 NCZ       0.211055
     35 H2          -0.5676     4.3147     2.0569 H          1 NCZ       0.218282
     36 H3           1.2049    11.4879     5.0844 H          1 NCZ       0.065350
     37 H171         0.3616    14.3373     2.9629 H          1 NCZ       0.053548
     38 H172         1.6452    13.4213     3.7449 H          1 NCZ       0.053548
     39 H173        -0.0061    13.4057     4.4091 H          1 NCZ       0.053548
     40 H181         1.9490     9.9973     6.7079 H          1 NCZ       0.027990
     41 H182         2.5906     8.4742     6.1097 H          1 NCZ       0.027990
     42 H183         0.9464     8.5497     6.7586 H          1 NCZ       0.027990
@<TRIPOS>BOND
     1     1     2 ar  
     2     1    21 ar  
     3     1    25 1   
     4     2     3 ar  
     5     2     7 ar  
     6     3     4 ar  
     7     3    19 ar  
     8     4     5 ar  
     9     4    26 1   
    10     5     6 ar  
    11     5    27 1   
    12     6     7 ar  
    13     6    18 1   
    14     7     8 1   
    15     8     9 2   
    16     8    10 1   
    17    10    11 1   
    18    11    12 1   
    19    11    15 1   
    20    11    28 1   
    21    12    13 1   
    22    12    17 1   
    23    12    29 1   
    24    13    14 2   
    25    13    30 1   
    26    14    15 1   
    27    14    31 1   
    28    15    16 1   
    29    15    32 1   
    30    16    33 1   
    31    17    34 1   
    32    18    35 1   
    33    19    20 ar  
    34    19    24 1   
    35    20    21 ar  
    36    20    36 1   
    37    21    22 1   
    38    22    23 1   
    39    23    37 1   
    40    23    38 1   
    41    23    39 1   
    42    24    40 1   
    43    24    41 1   
    44    24    42 1   
@<TRIPOS>SUBSTRUCTURE
     1 NCZ         1 TEMP              0 ****  ****    0 ROOT
