@<TRIPOS>MOLECULE
NCZ
   42    44     1     0     0
SMALL
gas


@<TRIPOS>ATOM
      1 C1           0.0570    11.6729     0.3650 C.ar       1 NCZ      -0.022995
      2 C6           0.3098    10.8665    -0.7855 C.ar       1 NCZ       0.000513
      3 C5           0.8955    11.4984    -1.9326 C.ar       1 NCZ      -0.014267
      4 C7           1.2024    10.7006    -3.0657 C.ar       1 NCZ      -0.051468
      5 C8           0.9451     9.3398    -3.0664 C.ar       1 NCZ      -0.030578
      6 C9           0.3581     8.7196    -1.9736 C.ar       1 NCZ       0.085257
      7 C10          0.0169     9.4572    -0.8309 C.ar       1 NCZ       0.084910
      8 C11         -0.6448     8.7518     0.3012 C.2        1 NCZ       0.296414
      9 O3          -1.7915     9.0115     0.6641 O.2        1 NCZ      -0.260548
     10 O4           0.1812     7.8759     0.9219 O.3        1 NCZ      -0.302484
     11 C12         -0.2707     7.0873     2.0263 C.3        1 NCZ       0.126355
     12 C13          0.8994     6.5627     2.8564 C.3        1 NCZ       0.101861
     13 C14          0.4533     5.1558     3.1826 C.2        1 NCZ      -0.054813
     14 C15         -0.6411     4.7864     2.4963 C.2        1 NCZ      -0.054813
     15 C16         -1.1389     5.8944     1.5999 C.3        1 NCZ       0.101861
     16 O6          -2.5143     6.1436     1.7970 O.3        1 NCZ      -0.386186
     17 O5           1.1140     7.3204     4.0288 O.3        1 NCZ      -0.386186
     18 O2           0.1580     7.3630    -2.0528 O.3        1 NCZ      -0.360066
     19 C4           1.1586    12.9023    -1.8971 C.ar       1 NCZ      -0.040650
     20 C3           0.8834    13.6357    -0.7470 C.ar       1 NCZ      -0.028235
     21 C2           0.3570    13.0385     0.3886 C.ar       1 NCZ       0.075431
     22 O1           0.1622    13.8611     1.4802 O.3        1 NCZ      -0.349350
     23 C17         -0.1016    13.2758     2.7499 C.3        1 NCZ       0.042189
     24 C18          1.7583    13.6087    -3.1065 C.3        1 NCZ      -0.039061
     25 H1          -0.3655    11.2070     1.2397 H          1 NCZ       0.065733
     26 H7           1.6602    11.1411    -3.9381 H          1 NCZ       0.063035
     27 H8           1.2195     8.7458    -3.9265 H          1 NCZ       0.065084
     28 H12         -0.8538     7.7414     2.6672 H          1 NCZ       0.067303
     29 H13          1.8188     6.5417     2.2672 H          1 NCZ       0.067524
     30 H14          1.0156     4.5413     3.8669 H          1 NCZ       0.060175
     31 H15         -1.1184     3.8173     2.5314 H          1 NCZ       0.060175
     32 H16         -0.9487     5.6293     0.5575 H          1 NCZ       0.067524
     33 H6          -2.8193     5.5830     2.5267 H          1 NCZ       0.211055
     34 H5           1.7585     6.8516     4.5654 H          1 NCZ       0.211055
     35 H2           1.0366     6.9423    -2.1339 H          1 NCZ       0.218282
     36 H3           1.0998    14.6936    -0.7204 H          1 NCZ       0.065350
     37 H171        -0.1796    14.0642     3.4982 H          1 NCZ       0.053548
     38 H172         0.7046    12.6069     3.0560 H          1 NCZ       0.053548
     39 H173        -1.0422    12.7263     2.7555 H          1 NCZ       0.053548
     40 H181         1.8783    14.6789    -2.9344 H          1 NCZ       0.027990
     41 H182         1.1169    13.4854    -3.9795 H          1 NCZ       0.027990
     42 H183         2.7427    13.2002    -3.3368 H          1 NCZ       0.027990
@<TRIPOS>BOND
     1     1     2 ar  
     2     1    21 ar  
     3     1    25 1   
     4     2     3 ar  
     5     2     7 ar  
     6     3     4 ar  
     7     3    19 ar  
     8     4     5 ar  
     9     4    26 1   
    10     5     6 ar  
    11     5    27 1   
    12     6     7 ar  
    13     6    18 1   
    14     7     8 1   
    15     8     9 2   
    16     8    10 1   
    17    10    11 1   
    18    11    12 1   
    19    11    15 1   
    20    11    28 1   
    21    12    13 1   
    22    12    17 1   
    23    12    29 1   
    24    13    14 2   
    25    13    30 1   
    26    14    15 1   
    27    14    31 1   
    28    15    16 1   
    29    15    32 1   
    30    16    33 1   
    31    17    34 1   
    32    18    35 1   
    33    19    20 ar  
    34    19    24 1   
    35    20    21 ar  
    36    20    36 1   
    37    21    22 1   
    38    22    23 1   
    39    23    37 1   
    40    23    38 1   
    41    23    39 1   
    42    24    40 1   
    43    24    41 1   
    44    24    42 1   
@<TRIPOS>SUBSTRUCTURE
     1 NCZ         1 TEMP              0 ****  ****    0 ROOT
