@<TRIPOS>MOLECULE
NCZ
   42    44     1     0     0
SMALL
gas


@<TRIPOS>ATOM
      1 C1           0.5555    10.3896    -0.5453 C.ar       1 NCZ      -0.022995
      2 C6           0.2441    10.9974     0.7115 C.ar       1 NCZ       0.000513
      3 C5           0.0599    12.4212     0.7325 C.ar       1 NCZ      -0.014267
      4 C7          -0.1525    13.0617     1.9800 C.ar       1 NCZ      -0.051468
      5 C8          -0.1081    12.3437     3.1631 C.ar       1 NCZ      -0.030578
      6 C9           0.0763    10.9707     3.1585 C.ar       1 NCZ       0.085257
      7 C10          0.1577    10.2543     1.9496 C.ar       1 NCZ       0.084910
      8 C11          0.2619     8.7566     1.9996 C.2        1 NCZ       0.296414
      9 O3           0.9578     8.1592     2.8264 O.2        1 NCZ      -0.260548
     10 O4          -0.5815     8.1429     1.1353 O.3        1 NCZ      -0.302484
     11 C12         -0.4735     6.7365     0.9120 C.3        1 NCZ       0.126355
     12 C13         -1.0883     6.3605    -0.4266 C.3        1 NCZ       0.101861
     13 C14         -1.4404     4.9062    -0.2131 C.2        1 NCZ      -0.054813
     14 C15         -1.4937     4.6188     1.0999 C.2        1 NCZ      -0.054813
     15 C16         -1.1771     5.8376     1.9438 C.3        1 NCZ       0.101861
     16 O6          -0.3861     5.5061     3.0637 O.3        1 NCZ      -0.386186
     17 O5          -0.2420     6.5751    -1.5393 O.3        1 NCZ      -0.386186
     18 O2           0.1577    10.3590     4.3858 O.3        1 NCZ      -0.360066
     19 C4           0.1218    13.1557    -0.4928 C.ar       1 NCZ      -0.040650
     20 C3           0.4157    12.5012    -1.6840 C.ar       1 NCZ      -0.028235
     21 C2           0.6667    11.1386    -1.7216 C.ar       1 NCZ       0.075431
     22 O1           1.0247    10.6163    -2.9484 O.3        1 NCZ      -0.349350
     23 C17          1.6891     9.3566    -2.9857 C.3        1 NCZ       0.042189
     24 C18         -0.0811    14.6660    -0.5065 C.3        1 NCZ      -0.039061
     25 H1           0.7479     9.3289    -0.5852 H          1 NCZ       0.065733
     26 H7          -0.3010    14.1303     2.0271 H          1 NCZ       0.063035
     27 H8          -0.2090    12.8663     4.1029 H          1 NCZ       0.065084
     28 H12          0.5931     6.5419     0.8694 H          1 NCZ       0.067303
     29 H13         -2.0184     6.9117    -0.5335 H          1 NCZ       0.067524
     30 H14         -1.6529     4.2312    -1.0309 H          1 NCZ       0.060175
     31 H15         -1.7599     3.6666     1.5348 H          1 NCZ       0.060175
     32 H16         -2.1099     6.2974     2.2752 H          1 NCZ       0.067524
     33 H6          -0.9254     5.0014     3.6783 H          1 NCZ       0.211055
     34 H5           0.6693     6.3115    -1.3314 H          1 NCZ       0.211055
     35 H2           0.4290     9.4383     4.3053 H          1 NCZ       0.218282
     36 H3           0.4914    13.0644    -2.6027 H          1 NCZ       0.065350
     37 H171         2.0455     9.1611    -3.9967 H          1 NCZ       0.053548
     38 H172         1.0153     8.5444    -2.7171 H          1 NCZ       0.053548
     39 H173         2.5569     9.3419    -2.3232 H          1 NCZ       0.053548
     40 H181        -0.0594    15.0702    -1.5192 H          1 NCZ       0.027990
     41 H182         0.7068    15.1595     0.0633 H          1 NCZ       0.027990
     42 H183        -1.0428    14.9314    -0.0696 H          1 NCZ       0.027990
@<TRIPOS>BOND
     1     1     2 ar  
     2     1    21 ar  
     3     1    25 1   
     4     2     3 ar  
     5     2     7 ar  
     6     3     4 ar  
     7     3    19 ar  
     8     4     5 ar  
     9     4    26 1   
    10     5     6 ar  
    11     5    27 1   
    12     6     7 ar  
    13     6    18 1   
    14     7     8 1   
    15     8     9 2   
    16     8    10 1   
    17    10    11 1   
    18    11    12 1   
    19    11    15 1   
    20    11    28 1   
    21    12    13 1   
    22    12    17 1   
    23    12    29 1   
    24    13    14 2   
    25    13    30 1   
    26    14    15 1   
    27    14    31 1   
    28    15    16 1   
    29    15    32 1   
    30    16    33 1   
    31    17    34 1   
    32    18    35 1   
    33    19    20 ar  
    34    19    24 1   
    35    20    21 ar  
    36    20    36 1   
    37    21    22 1   
    38    22    23 1   
    39    23    37 1   
    40    23    38 1   
    41    23    39 1   
    42    24    40 1   
    43    24    41 1   
    44    24    42 1   
@<TRIPOS>SUBSTRUCTURE
     1 NCZ         1 TEMP              0 ****  ****    0 ROOT
