@<TRIPOS>MOLECULE
NCZ
   42    44     1     0     0
SMALL
gas


@<TRIPOS>ATOM
      1 C1           0.2677    10.0888    -4.8758 C.ar       1 NCZ      -0.022995
      2 C6          -0.0945     8.8180    -4.3352 C.ar       1 NCZ       0.000513
      3 C5           0.1393     8.5968    -2.9388 C.ar       1 NCZ      -0.014267
      4 C7          -0.1671     7.3238    -2.3916 C.ar       1 NCZ      -0.051468
      5 C8          -0.6420     6.3017    -3.1928 C.ar       1 NCZ      -0.030578
      6 C9          -0.9102     6.5103    -4.5358 C.ar       1 NCZ       0.085257
      7 C10         -0.6531     7.7550    -5.1312 C.ar       1 NCZ       0.084910
      8 C11         -0.9241     7.9297    -6.5830 C.2        1 NCZ       0.296414
      9 O3          -1.8167     8.6536    -7.0276 O.2        1 NCZ      -0.260548
     10 O4          -0.0048     7.2767    -7.3302 O.3        1 NCZ      -0.302484
     11 C12          0.0062     7.3556    -8.7571 C.3        1 NCZ       0.126355
     12 C13         -1.0487     6.4553    -9.4154 C.3        1 NCZ       0.101861
     13 C14         -0.3212     5.9840   -10.6552 C.2        1 NCZ      -0.054813
     14 C15          1.0007     6.2230   -10.5784 C.2        1 NCZ      -0.054813
     15 C16          1.3698     6.8894    -9.2723 C.3        1 NCZ       0.101861
     16 O6           2.2901     7.9473    -9.4427 O.3        1 NCZ      -0.386186
     17 O5          -2.2419     7.1404    -9.7352 O.3        1 NCZ      -0.386186
     18 O2          -1.4419     5.4534    -5.2359 O.3        1 NCZ      -0.360066
     19 C4           0.6999     9.6463    -2.1484 C.ar       1 NCZ      -0.040650
     20 C3           1.0487    10.8588    -2.7368 C.ar       1 NCZ      -0.028235
     21 C2           0.8524    11.0845    -4.1005 C.ar       1 NCZ       0.075431
     22 O1           1.2074    12.2479    -4.7557 O.3        1 NCZ      -0.349350
     23 C17          2.0231    13.2021    -4.0823 C.3        1 NCZ       0.042189
     24 C18          0.9589     9.4297    -0.6634 C.3        1 NCZ      -0.039061
     25 H1           0.1196    10.2904    -5.9255 H          1 NCZ       0.065733
     26 H7           0.0381     7.1118    -1.3522 H          1 NCZ       0.063035
     27 H8          -0.8293     5.3419    -2.7374 H          1 NCZ       0.065084
     28 H12         -0.1498     8.3947    -9.0576 H          1 NCZ       0.067303
     29 H13         -1.2705     5.5927    -8.7834 H          1 NCZ       0.067524
     30 H14         -0.8354     5.4882   -11.4653 H          1 NCZ       0.060175
     31 H15          1.7466     5.9516   -11.3112 H          1 NCZ       0.060175
     32 H16          1.8001     6.1419    -8.6057 H          1 NCZ       0.067524
     33 H6           2.5718     8.2499    -8.5749 H          1 NCZ       0.211055
     34 H5          -2.7249     7.3419    -8.9226 H          1 NCZ       0.211055
     35 H2          -1.5603     4.6725    -4.6840 H          1 NCZ       0.218282
     36 H3           1.4909    11.6217    -2.1156 H          1 NCZ       0.065350
     37 H171         2.2814    14.0053    -4.7719 H          1 NCZ       0.053548
     38 H172         2.9574    12.7592    -3.7340 H          1 NCZ       0.053548
     39 H173         1.5010    13.6510    -3.2367 H          1 NCZ       0.053548
     40 H181         1.3594    10.3216    -0.1810 H          1 NCZ       0.027990
     41 H182         1.6834     8.6228    -0.5337 H          1 NCZ       0.027990
     42 H183         0.0400     9.1575    -0.1445 H          1 NCZ       0.027990
@<TRIPOS>BOND
     1     1     2 ar  
     2     1    21 ar  
     3     1    25 1   
     4     2     3 ar  
     5     2     7 ar  
     6     3     4 ar  
     7     3    19 ar  
     8     4     5 ar  
     9     4    26 1   
    10     5     6 ar  
    11     5    27 1   
    12     6     7 ar  
    13     6    18 1   
    14     7     8 1   
    15     8     9 2   
    16     8    10 1   
    17    10    11 1   
    18    11    12 1   
    19    11    15 1   
    20    11    28 1   
    21    12    13 1   
    22    12    17 1   
    23    12    29 1   
    24    13    14 2   
    25    13    30 1   
    26    14    15 1   
    27    14    31 1   
    28    15    16 1   
    29    15    32 1   
    30    16    33 1   
    31    17    34 1   
    32    18    35 1   
    33    19    20 ar  
    34    19    24 1   
    35    20    21 ar  
    36    20    36 1   
    37    21    22 1   
    38    22    23 1   
    39    23    37 1   
    40    23    38 1   
    41    23    39 1   
    42    24    40 1   
    43    24    41 1   
    44    24    42 1   
@<TRIPOS>SUBSTRUCTURE
     1 NCZ         1 TEMP              0 ****  ****    0 ROOT
