@<TRIPOS>MOLECULE
NCZ
   42    44     1     0     0
SMALL
gas


@<TRIPOS>ATOM
      1 C1          -0.0318    10.0518    -4.4030 C.ar       1 NCZ      -0.022995
      2 C6          -0.2557     8.7280    -3.9201 C.ar       1 NCZ       0.000513
      3 C5          -0.0473     8.4826    -2.5238 C.ar       1 NCZ      -0.014267
      4 C7          -0.2420     7.1665    -2.0281 C.ar       1 NCZ      -0.051468
      5 C8          -0.6420     6.1421    -2.8676 C.ar       1 NCZ      -0.030578
      6 C9          -0.9046     6.3780    -4.2091 C.ar       1 NCZ       0.085257
      7 C10         -0.6843     7.6459    -4.7683 C.ar       1 NCZ       0.084910
      8 C11         -0.8780     7.8337    -6.2311 C.2        1 NCZ       0.296414
      9 O3          -1.8393     8.4291    -6.7209 O.2        1 NCZ      -0.260548
     10 O4           0.1799     7.3495    -6.9270 O.3        1 NCZ      -0.302484
     11 C12          0.2795     7.4831    -8.3480 C.3        1 NCZ       0.126355
     12 C13         -0.5938     6.4727    -9.1063 C.3        1 NCZ       0.101861
     13 C14          0.2729     6.1420   -10.3007 C.2        1 NCZ      -0.054813
     14 C15          1.5381     6.5667   -10.1309 C.2        1 NCZ      -0.054813
     15 C16          1.7263     7.2367    -8.7879 C.3        1 NCZ       0.101861
     16 O6           2.4882     8.4216    -8.8814 O.3        1 NCZ      -0.386186
     17 O5          -1.8416     7.0061    -9.4974 O.3        1 NCZ      -0.386186
     18 O2          -1.4412     5.3430    -4.9367 O.3        1 NCZ      -0.360066
     19 C4           0.3633     9.5583    -1.6791 C.ar       1 NCZ      -0.040650
     20 C3           0.5563    10.8322    -2.2070 C.ar       1 NCZ      -0.028235
     21 C2           0.3624    11.0892    -3.5658 C.ar       1 NCZ       0.075431
     22 O1           0.5334    12.3247    -4.1603 O.3        1 NCZ      -0.349350
     23 C17          0.8693    13.4458    -3.3502 C.3        1 NCZ       0.042189
     24 C18          0.5993     9.3162    -0.1948 C.3        1 NCZ      -0.039061
     25 H1          -0.1762    10.2767    -5.4484 H          1 NCZ       0.065733
     26 H7          -0.0508     6.9389    -0.9898 H          1 NCZ       0.063035
     27 H8          -0.7963     5.1613    -2.4433 H          1 NCZ       0.065084
     28 H12         -0.0035     8.5016    -8.6253 H          1 NCZ       0.067303
     29 H13         -0.7430     5.5676    -8.5137 H          1 NCZ       0.067524
     30 H14         -0.1107     5.5995   -11.1522 H          1 NCZ       0.060175
     31 H15          2.3592     6.4244   -10.8182 H          1 NCZ       0.060175
     32 H16          2.2266     6.5415    -8.1124 H          1 NCZ       0.067524
     33 H6           2.7072     8.7143    -7.9927 H          1 NCZ       0.211055
     34 H5          -2.3594     7.2202    -8.7118 H          1 NCZ       0.211055
     35 H2          -1.5006     4.5282    -4.4243 H          1 NCZ       0.218282
     36 H3           0.8688    11.6211    -1.5410 H          1 NCZ       0.065350
     37 H171         0.9567    14.3313    -3.9793 H          1 NCZ       0.053548
     38 H172         1.8261    13.3047    -2.8470 H          1 NCZ       0.053548
     39 H173         0.0980    13.6454    -2.6047 H          1 NCZ       0.053548
     40 H181         0.9483    10.2124     0.3184 H          1 NCZ       0.027990
     41 H182         1.3579     8.5417    -0.0665 H          1 NCZ       0.027990
     42 H183        -0.3189     8.9866     0.2917 H          1 NCZ       0.027990
@<TRIPOS>BOND
     1     1     2 ar  
     2     1    21 ar  
     3     1    25 1   
     4     2     3 ar  
     5     2     7 ar  
     6     3     4 ar  
     7     3    19 ar  
     8     4     5 ar  
     9     4    26 1   
    10     5     6 ar  
    11     5    27 1   
    12     6     7 ar  
    13     6    18 1   
    14     7     8 1   
    15     8     9 2   
    16     8    10 1   
    17    10    11 1   
    18    11    12 1   
    19    11    15 1   
    20    11    28 1   
    21    12    13 1   
    22    12    17 1   
    23    12    29 1   
    24    13    14 2   
    25    13    30 1   
    26    14    15 1   
    27    14    31 1   
    28    15    16 1   
    29    15    32 1   
    30    16    33 1   
    31    17    34 1   
    32    18    35 1   
    33    19    20 ar  
    34    19    24 1   
    35    20    21 ar  
    36    20    36 1   
    37    21    22 1   
    38    22    23 1   
    39    23    37 1   
    40    23    38 1   
    41    23    39 1   
    42    24    40 1   
    43    24    41 1   
    44    24    42 1   
@<TRIPOS>SUBSTRUCTURE
     1 NCZ         1 TEMP              0 ****  ****    0 ROOT
