@<TRIPOS>MOLECULE
NCZ
42   44    1
SMALL
USER_CHARGES


@<TRIPOS>ATOM
      1 C1         -0.2143   11.9880   -2.4546 C.ar      1 NCZ        -0.1709 
      2 C6         -0.1675   10.8197   -1.6378 C.ar      1 NCZ         0.0726 
      3 C5         -0.2827   10.9894   -0.2177 C.ar      1 NCZ        -0.0959 
      4 C7         -0.2443    9.8363    0.6106 C.ar      1 NCZ        -0.0424 
      5 C8         -0.0988    8.5711    0.0635 C.ar      1 NCZ        -0.2379 
      6 C9          0.0118    8.3940   -1.3065 C.ar      1 NCZ         0.2611 
      7 C10        -0.0176    9.4949   -2.1798 C.ar      1 NCZ        -0.3060 
      8 C11         0.1010    9.2433   -3.6455 C.2       1 NCZ         0.6421 
      9 O3          1.0836    9.5541   -4.3201 O.2       1 NCZ        -0.4040 
     10 O4         -1.0420    8.6880   -4.1334 O.3       1 NCZ        -0.3226 
     11 C12        -1.1952    8.1604   -5.4579 C.3       1 NCZ         0.0648 
     12 C13        -0.3467    6.9128   -5.7049 C.3       1 NCZ         0.2089 
     13 C14        -0.1036    6.9924   -7.1956 C.2       1 NCZ        -0.2040 
     14 C15        -0.4528    8.1913   -7.7009 C.2       1 NCZ        -0.2040 
     15 C16        -1.0049    9.1203   -6.6404 C.3       1 NCZ         0.2089 
     16 O6         -2.2132    9.7267   -7.0500 O.3       1 NCZ        -0.6331 
     17 O5         -1.0420    5.7418   -5.3334 O.3       1 NCZ        -0.6331 
     18 O2          0.1580    7.1055   -1.7578 O.3       1 NCZ        -0.5507 
     19 C4         -0.4297   12.3071    0.3169 C.ar      1 NCZ        -0.0224 
     20 C3         -0.4647   13.4087   -0.5334 C.ar      1 NCZ        -0.1967 
     21 C2         -0.3610   13.2615   -1.9177 C.ar      1 NCZ         0.1767 
     22 O1         -0.3984   14.3082   -2.8184 O.3       1 NCZ        -0.3596 
     23 C17        -0.5129   15.6417   -2.3337 C.3       1 NCZ         0.1374 
     24 C18        -0.5535   12.5242    1.8197 C.3       1 NCZ        -0.1312 
     25 H1         -0.1338   11.8984   -3.5272 H         1 NCZ         0.1606 
     26 H7         -0.3232    9.9307    1.6829 H         1 NCZ         0.1348 
     27 H8         -0.0596    7.7093    0.7143 H         1 NCZ         0.1341 
     28 H12        -2.2371    7.8382   -5.4825 H         1 NCZ         0.1032 
     29 H13         0.6135    6.9618   -5.1859 H         1 NCZ         0.0836 
     30 H14         0.3394    6.1735   -7.7442 H         1 NCZ         0.1528 
     31 H15        -0.3396    8.5054   -8.7284 H         1 NCZ         0.1528 
     32 H16        -0.2670    9.8934   -6.4266 H         1 NCZ         0.0836 
     33 H6         -2.8205    9.0367   -7.3334 H         1 NCZ         0.4243 
     34 H5         -1.1141    5.7114   -4.3722 H         1 NCZ         0.4243 
     35 H2          1.1004    6.8460   -1.7334 H         1 NCZ         0.4084 
     36 H3         -0.5811   14.3887   -0.0967 H         1 NCZ         0.1346 
     37 H171       -0.5191   16.3312   -3.1778 H         1 NCZ         0.0417 
     38 H172        0.3311   15.9095   -1.6961 H         1 NCZ         0.0417 
     39 H173       -1.4420   15.7897   -1.7815 H         1 NCZ         0.0417 
     40 H181       -0.6420   13.5813    2.0740 H         1 NCZ         0.0733 
     41 H182        0.3241   12.1339    2.3361 H         1 NCZ         0.0733 
     42 H183       -1.4386   12.0179    2.2025 H         1 NCZ         0.0733 
@<TRIPOS>BOND
     1    1    2 ar   
     2    1   21 ar   
     3    1   25 1    
     4    2    3 ar   
     5    2    7 ar   
     6    3    4 ar   
     7    3   19 ar   
     8    4    5 ar   
     9    4   26 1    
    10    5    6 ar   
    11    5   27 1    
    12    6    7 ar   
    13    6   18 1    
    14    7    8 1    
    15    8    9 2    
    16    8   10 1    
    17   10   11 1    
    18   11   12 1    
    19   11   15 1    
    20   11   28 1    
    21   12   13 1    
    22   12   17 1    
    23   12   29 1    
    24   13   14 2    
    25   13   30 1    
    26   14   15 1    
    27   14   31 1    
    28   15   16 1    
    29   15   32 1    
    30   16   33 1    
    31   17   34 1    
    32   18   35 1    
    33   19   20 ar   
    34   19   24 1    
    35   20   21 ar   
    36   20   36 1    
    37   21   22 1    
    38   22   23 1    
    39   23   37 1    
    40   23   38 1    
    41   23   39 1    
    42   24   40 1    
    43   24   41 1    
    44   24   42 1    
@<TRIPOS>SUBSTRUCTURE
     1 NCZ         1 GROUP             0       ****    0 ROOT    
