@<TRIPOS>MOLECULE
NCZ
42   44    1
SMALL
USER_CHARGES


@<TRIPOS>ATOM
      1 C1         -1.0177   12.5168   -3.7176 C.ar      1 NCZ        -0.1709 
      2 C6         -0.2948   11.4432   -3.1104 C.ar      1 NCZ         0.0726 
      3 C5          0.4227   11.7367   -1.9004 C.ar      1 NCZ        -0.0959 
      4 C7          1.1670   10.7031   -1.2813 C.ar      1 NCZ        -0.0424 
      5 C8          1.1918    9.4297   -1.8165 C.ar      1 NCZ        -0.2379 
      6 C9          0.4921    9.1214   -2.9706 C.ar      1 NCZ         0.2611 
      7 C10        -0.2629   10.0987   -3.6528 C.ar      1 NCZ        -0.3060 
      8 C11        -1.0444    9.7011   -4.8820 C.2       1 NCZ         0.6421 
      9 O3         -2.1918   10.0917   -5.1123 O.2       1 NCZ        -0.4040 
     10 O4         -0.3671    8.8681   -5.7161 O.3       1 NCZ        -0.3226 
     11 C12        -1.0174    8.1562   -6.7776 C.3       1 NCZ         0.0648 
     12 C13        -0.1780    6.9272   -7.1452 C.3       1 NCZ         0.2089 
     13 C14        -0.3025    6.8711   -8.6486 C.2       1 NCZ        -0.2040 
     14 C15        -0.8650    7.9872   -9.1458 C.2       1 NCZ        -0.2040 
     15 C16        -1.2201    8.9768   -8.0595 C.3       1 NCZ         0.2089 
     16 O6         -2.5391    9.4602   -8.2065 O.3       1 NCZ        -0.6331 
     17 O5         -0.6427    5.7428   -6.5329 O.3       1 NCZ        -0.6331 
     18 O2          0.5579    7.8116   -3.3742 O.3       1 NCZ        -0.5507 
     19 C4          0.3660   13.0550   -1.3480 C.ar      1 NCZ        -0.0224 
     20 C3         -0.3723   14.0474   -1.9824 C.ar      1 NCZ        -0.1967 
     21 C2         -1.0692   13.7958   -3.1533 C.ar      1 NCZ         0.1767 
     22 O1         -1.7879   14.8535   -3.6782 O.3       1 NCZ        -0.3596 
     23 C17        -2.6487   14.6262   -4.7893 C.3       1 NCZ         0.1374 
     24 C18         1.0929   13.3847   -0.0489 C.3       1 NCZ        -0.1312 
     25 H1         -1.5457   12.3383   -4.6374 H         1 NCZ         0.1606 
     26 H7          1.7245   10.8901   -0.3753 H         1 NCZ         0.1348 
     27 H8          1.7616    8.6561   -1.3170 H         1 NCZ         0.1341 
     28 H12        -1.9850    7.8156   -6.4030 H         1 NCZ         0.1032 
     29 H13         0.8704    7.0819   -6.8845 H         1 NCZ         0.0836 
     30 H14         0.0677    6.0322   -9.2204 H         1 NCZ         0.1528 
     31 H15        -1.0292    8.2062  -10.1907 H         1 NCZ         0.1528 
     32 H16        -0.5157    9.8097   -8.0953 H         1 NCZ         0.0836 
     33 H6         -3.1490    8.7208   -8.1296 H         1 NCZ         0.4243 
     34 H5         -1.5448    5.5839   -6.8248 H         1 NCZ         0.4243 
     35 H2          1.2906    7.3425   -2.9343 H         1 NCZ         0.4084 
     36 H3         -0.4189   15.0391   -1.5564 H         1 NCZ         0.1346 
     37 H171       -3.1829   15.5462   -5.0242 H         1 NCZ         0.0417 
     38 H172       -3.3957   13.8610   -4.5671 H         1 NCZ         0.0417 
     39 H173       -2.0875   14.3326   -5.6776 H         1 NCZ         0.0417 
     40 H181        0.9840   14.4347    0.2257 H         1 NCZ         0.0733 
     41 H182        2.1588   13.1774   -0.1388 H         1 NCZ         0.0733 
     42 H183        0.6954   12.7861    0.7709 H         1 NCZ         0.0733 
@<TRIPOS>BOND
     1    1    2 ar   
     2    1   21 ar   
     3    1   25 1    
     4    2    3 ar   
     5    2    7 ar   
     6    3    4 ar   
     7    3   19 ar   
     8    4    5 ar   
     9    4   26 1    
    10    5    6 ar   
    11    5   27 1    
    12    6    7 ar   
    13    6   18 1    
    14    7    8 1    
    15    8    9 2    
    16    8   10 1    
    17   10   11 1    
    18   11   12 1    
    19   11   15 1    
    20   11   28 1    
    21   12   13 1    
    22   12   17 1    
    23   12   29 1    
    24   13   14 2    
    25   13   30 1    
    26   14   15 1    
    27   14   31 1    
    28   15   16 1    
    29   15   32 1    
    30   16   33 1    
    31   17   34 1    
    32   18   35 1    
    33   19   20 ar   
    34   19   24 1    
    35   20   21 ar   
    36   20   36 1    
    37   21   22 1    
    38   22   23 1    
    39   23   37 1    
    40   23   38 1    
    41   23   39 1    
    42   24   40 1    
    43   24   41 1    
    44   24   42 1    
@<TRIPOS>SUBSTRUCTURE
     1 NCZ         1 GROUP             0       ****    0 ROOT    
