@<TRIPOS>MOLECULE
NCZ
42   44    1
SMALL
USER_CHARGES


@<TRIPOS>ATOM
      1 C1         -0.1020   13.6897    2.9510 C.ar      1 NCZ        -0.1709 
      2 C6         -0.0214   12.5409    3.7969 C.ar      1 NCZ         0.0726 
      3 C5         -0.1162   12.7528    5.2137 C.ar      1 NCZ        -0.0959 
      4 C7         -0.0129   11.6331    6.0789 C.ar      1 NCZ        -0.0424 
      5 C8          0.2069   10.3623    5.5759 C.ar      1 NCZ        -0.2379 
      6 C9          0.3046   10.1429    4.2116 C.ar      1 NCZ         0.2611 
      7 C10         0.1576   11.1991    3.2918 C.ar      1 NCZ        -0.3060 
      8 C11         0.1907   10.9006    1.8196 C.2       1 NCZ         0.6421 
      9 O3          0.9112   11.5013    1.0197 O.2       1 NCZ        -0.4040 
     10 O4         -0.7225    9.9550    1.4661 O.3       1 NCZ        -0.3226 
     11 C12        -0.9369    9.4865    0.1244 C.3       1 NCZ         0.0648 
     12 C13         0.2461    8.7448   -0.5222 C.3       1 NCZ         0.2089 
     13 C14         0.1281    9.1649   -1.9706 C.2       1 NCZ        -0.2040 
     14 C15        -0.7834   10.1414   -2.1503 C.2       1 NCZ        -0.2040 
     15 C16        -1.4348   10.5643   -0.8504 C.3       1 NCZ         0.2089 
     16 O6         -2.8446   10.6152   -0.9334 O.3       1 NCZ        -0.6331 
     17 O5          0.1581    7.3423   -0.3700 O.3       1 NCZ        -0.6331 
     18 O2          0.5581    8.8533    3.8133 O.3       1 NCZ        -0.5507 
     19 C4         -0.3034   14.0794    5.7139 C.ar      1 NCZ        -0.0224 
     20 C3         -0.3534   15.1564    4.8350 C.ar      1 NCZ        -0.1967 
     21 C2         -0.2324   14.9833    3.4652 C.ar      1 NCZ         0.1767 
     22 O1         -0.2433   16.1319    2.6980 O.3       1 NCZ        -0.3596 
     23 C17         0.0808   16.0470    1.3135 C.3       1 NCZ         0.1374 
     24 C18        -0.4268   14.3357    7.2112 C.3       1 NCZ        -0.1312 
     25 H1         -0.0395   13.5622    1.8844 H         1 NCZ         0.1606 
     26 H7         -0.0806   11.7615    7.1487 H         1 NCZ         0.1348 
     27 H8          0.3058    9.5361    6.2653 H         1 NCZ         0.1341 
     28 H12        -1.7384    8.7559    0.2457 H         1 NCZ         0.1032 
     29 H13         1.2030    9.0928   -0.1331 H         1 NCZ         0.0836 
     30 H14         0.7509    8.7146   -2.7321 H         1 NCZ         0.1528 
     31 H15        -1.0261   10.6194   -3.0876 H         1 NCZ         0.1528 
     32 H16        -1.0644   11.5552   -0.5877 H         1 NCZ         0.0836 
     33 H6         -3.2124   10.5757   -0.0387 H         1 NCZ         0.4243 
     34 H5          1.0354    6.9608   -0.5654 H         1 NCZ         0.4243 
     35 H2          0.6225    8.2324    4.5420 H         1 NCZ         0.4084 
     36 H3         -0.4703   16.1592    5.2194 H         1 NCZ         0.1346 
     37 H171        0.0725   17.0474    0.8811 H         1 NCZ         0.0417 
     38 H172       -0.6424   15.4465    0.7614 H         1 NCZ         0.0417 
     39 H173        1.0780   15.6302    1.1619 H         1 NCZ         0.0417 
     40 H181       -0.5855   15.3917    7.4326 H         1 NCZ         0.0733 
     41 H182        0.4817   14.0244    7.7279 H         1 NCZ         0.0733 
     42 H183       -1.2706   13.7837    7.6263 H         1 NCZ         0.0733 
@<TRIPOS>BOND
     1    1    2 ar   
     2    1   21 ar   
     3    1   25 1    
     4    2    3 ar   
     5    2    7 ar   
     6    3    4 ar   
     7    3   19 ar   
     8    4    5 ar   
     9    4   26 1    
    10    5    6 ar   
    11    5   27 1    
    12    6    7 ar   
    13    6   18 1    
    14    7    8 1    
    15    8    9 2    
    16    8   10 1    
    17   10   11 1    
    18   11   12 1    
    19   11   15 1    
    20   11   28 1    
    21   12   13 1    
    22   12   17 1    
    23   12   29 1    
    24   13   14 2    
    25   13   30 1    
    26   14   15 1    
    27   14   31 1    
    28   15   16 1    
    29   15   32 1    
    30   16   33 1    
    31   17   34 1    
    32   18   35 1    
    33   19   20 ar   
    34   19   24 1    
    35   20   21 ar   
    36   20   36 1    
    37   21   22 1    
    38   22   23 1    
    39   23   37 1    
    40   23   38 1    
    41   23   39 1    
    42   24   40 1    
    43   24   41 1    
    44   24   42 1    
@<TRIPOS>SUBSTRUCTURE
     1 NCZ         1 GROUP             0       ****    0 ROOT    
