@<TRIPOS>MOLECULE
NCZ
42   44    1
SMALL
USER_CHARGES


@<TRIPOS>ATOM
      1 C1          1.9963   13.3781    1.8194 C.ar      1 NCZ        -0.1709 
      2 C6          1.1089   13.8807    0.8205 C.ar      1 NCZ         0.0726 
      3 C5          0.8410   15.2910    0.8149 C.ar      1 NCZ        -0.0959 
      4 C7         -0.0181   15.8173   -0.1855 C.ar      1 NCZ        -0.0424 
      5 C8         -0.5970   14.9922   -1.1356 C.ar      1 NCZ        -0.2379 
      6 C9         -0.3567   13.6279   -1.1345 C.ar      1 NCZ         0.2611 
      7 C10         0.4884   13.0400   -0.1736 C.ar      1 NCZ        -0.3060 
      8 C11         0.7308   11.5628   -0.2305 C.2       1 NCZ         0.6421 
      9 O3          0.5583   10.8035    0.7226 O.2       1 NCZ        -0.4040 
     10 O4          1.2249   11.1917   -1.4405 O.3       1 NCZ        -0.3226 
     11 C12         1.5542    9.8414   -1.7926 C.3       1 NCZ         0.0648 
     12 C13         2.1052    9.8695   -3.2286 C.3       1 NCZ         0.2089 
     13 C14         1.0969    9.0649   -4.0221 C.2       1 NCZ        -0.2040 
     14 C15         0.1573    8.5159   -3.2323 C.2       1 NCZ        -0.2040 
     15 C16         0.3510    8.8771   -1.7779 C.3       1 NCZ         0.2089 
     16 O6          0.5579    7.7417   -0.9624 O.3       1 NCZ        -0.6331 
     17 O5          3.4051    9.3422   -3.3303 O.3       1 NCZ        -0.6331 
     18 O2         -0.9994   12.8935   -2.1018 O.3       1 NCZ        -0.5507 
     19 C4          1.4455   16.1216    1.8108 C.ar      1 NCZ        -0.0224 
     20 C3          2.2989   15.5670    2.7589 C.ar      1 NCZ        -0.1967 
     21 C2          2.5860   14.2126    2.7745 C.ar      1 NCZ         0.1767 
     22 O1          3.4586   13.7859    3.7563 O.3       1 NCZ        -0.3596 
     23 C17         3.8672   12.4267    3.7854 C.3       1 NCZ         0.1374 
     24 C18         1.1658   17.6202    1.8522 C.3       1 NCZ        -0.1312 
     25 H1          2.2167   12.3239    1.8331 H         1 NCZ         0.1606 
     26 H7         -0.2308   16.8760   -0.2140 H         1 NCZ         0.1348 
     27 H8         -1.2519   15.4264   -1.8744 H         1 NCZ         0.1341 
     28 H12         2.3222    9.5192   -1.0877 H         1 NCZ         0.1032 
     29 H13         2.1283   10.8893   -3.6173 H         1 NCZ         0.0836 
     30 H14         1.1746    8.9575   -5.0936 H         1 NCZ         0.1528 
     31 H15        -0.6607    7.8882   -3.5512 H         1 NCZ         0.1528 
     32 H16        -0.5478    9.3927   -1.4328 H         1 NCZ         0.0836 
     33 H6          1.4257    7.3365   -1.1699 H         1 NCZ         0.4243 
     34 H5          3.3579    8.4039   -3.0349 H         1 NCZ         0.4243 
     35 H2         -1.4705   13.4399   -2.7336 H         1 NCZ         0.4084 
     36 H3          2.7592   16.1971    3.5061 H         1 NCZ         0.1346 
     37 H171        4.5589   12.2794    4.6114 H         1 NCZ         0.0417 
     38 H172        4.3895   12.1421    2.8718 H         1 NCZ         0.0417 
     39 H173        3.0238   11.7535    3.9455 H         1 NCZ         0.0417 
     40 H181        1.6870   18.1113    2.6768 H         1 NCZ         0.0733 
     41 H182        0.0995   17.8031    1.9870 H         1 NCZ         0.0733 
     42 H183        1.4911   18.0971    0.9272 H         1 NCZ         0.0733 
@<TRIPOS>BOND
     1    1    2 ar   
     2    1   21 ar   
     3    1   25 1    
     4    2    3 ar   
     5    2    7 ar   
     6    3    4 ar   
     7    3   19 ar   
     8    4    5 ar   
     9    4   26 1    
    10    5    6 ar   
    11    5   27 1    
    12    6    7 ar   
    13    6   18 1    
    14    7    8 1    
    15    8    9 2    
    16    8   10 1    
    17   10   11 1    
    18   11   12 1    
    19   11   15 1    
    20   11   28 1    
    21   12   13 1    
    22   12   17 1    
    23   12   29 1    
    24   13   14 2    
    25   13   30 1    
    26   14   15 1    
    27   14   31 1    
    28   15   16 1    
    29   15   32 1    
    30   16   33 1    
    31   17   34 1    
    32   18   35 1    
    33   19   20 ar   
    34   19   24 1    
    35   20   21 ar   
    36   20   36 1    
    37   21   22 1    
    38   22   23 1    
    39   23   37 1    
    40   23   38 1    
    41   23   39 1    
    42   24   40 1    
    43   24   41 1    
    44   24   42 1    
@<TRIPOS>SUBSTRUCTURE
     1 NCZ         1 GROUP             0       ****    0 ROOT    
