@<TRIPOS>MOLECULE
NCZ
42   44    1
SMALL
USER_CHARGES


@<TRIPOS>ATOM
      1 C1          0.7383   10.6492   -0.2478 C.ar      1 NCZ        -0.1709 
      2 C6          0.3281   11.2307    0.9953 C.ar      1 NCZ         0.0726 
      3 C5          0.1160   12.6513    1.0193 C.ar      1 NCZ        -0.0959 
      4 C7         -0.2014   13.2732    2.2522 C.ar      1 NCZ        -0.0424 
      5 C8         -0.2628   12.5403    3.4234 C.ar      1 NCZ        -0.2379 
      6 C9         -0.0831   11.1668    3.4167 C.ar      1 NCZ         0.2611 
      7 C10         0.1555   10.4676    2.2162 C.ar      1 NCZ        -0.3060 
      8 C11         0.3152    8.9687    2.2634 C.2       1 NCZ         0.6421 
      9 O3          0.9570    8.3778    3.1351 O.2       1 NCZ        -0.4040 
     10 O4         -0.4018    8.3395    1.3011 O.3       1 NCZ        -0.3226 
     11 C12        -0.2389    6.9392    1.0541 C.3       1 NCZ         0.0648 
     12 C13        -0.7582    6.6085   -0.3413 C.3       1 NCZ         0.2089 
     13 C14        -1.1885    5.1660   -0.1935 C.2       1 NCZ        -0.2040 
     14 C15        -1.3491    4.8455    1.1036 C.2       1 NCZ        -0.2040 
     15 C16        -1.0066    6.0113    2.0115 C.3       1 NCZ         0.2089 
     16 O6         -0.2424    5.5977    3.1239 O.3       1 NCZ        -0.6331 
     17 O5          0.1577    6.8299   -1.3954 O.3       1 NCZ        -0.6331 
     18 O2         -0.1896   10.5419    4.6352 O.3       1 NCZ        -0.5507 
     19 C4          0.2507   13.4052   -0.1878 C.ar      1 NCZ        -0.0224 
     20 C3          0.6506   12.7766   -1.3608 C.ar      1 NCZ        -0.1967 
     21 C2          0.9222   11.4188   -1.4024 C.ar      1 NCZ         0.1767 
     22 O1          1.3734   10.9322   -2.6136 O.3       1 NCZ        -0.3596 
     23 C17         1.8237    9.5834   -2.7021 C.3       1 NCZ         0.1374 
     24 C18        -0.0110   14.9071   -0.2027 C.3       1 NCZ        -0.1312 
     25 H1          0.9487    9.5927   -0.2922 H         1 NCZ         0.1606 
     26 H7         -0.3683   14.3392    2.2980 H         1 NCZ         0.1348 
     27 H8         -0.4718   13.0570    4.3486 H         1 NCZ         0.1341 
     28 H12         0.8300    6.7325    1.0992 H         1 NCZ         0.1032 
     29 H13        -1.6529    7.1953   -0.5328 H         1 NCZ         0.0836 
     30 H14        -1.3798    4.5253   -1.0443 H         1 NCZ         0.1528 
     31 H15        -1.6934    3.8963    1.4876 H         1 NCZ         0.1528 
     32 H16        -1.9284    6.4894    2.3500 H         1 NCZ         0.0836 
     33 H6         -0.8179    5.1210    3.7280 H         1 NCZ         0.4243 
     34 H5          1.0633    6.5423   -1.1650 H         1 NCZ         0.4243 
     35 H2         -0.2180   11.1552    5.3713 H         1 NCZ         0.4084 
     36 H3          0.7795   13.3551   -2.2638 H         1 NCZ         0.1346 
     37 H171        2.2820    9.4171   -3.6769 H         1 NCZ         0.0417 
     38 H172        0.9902    8.8893   -2.6159 H         1 NCZ         0.0417 
     39 H173        2.5746    9.3425   -1.9467 H         1 NCZ         0.0417 
     40 H181        0.1018   15.3298   -1.2017 H         1 NCZ         0.0733 
     41 H182        0.6894   15.4234    0.4543 H         1 NCZ         0.0733 
     42 H183       -1.0268   15.1224    0.1305 H         1 NCZ         0.0733 
@<TRIPOS>BOND
     1    1    2 ar   
     2    1   21 ar   
     3    1   25 1    
     4    2    3 ar   
     5    2    7 ar   
     6    3    4 ar   
     7    3   19 ar   
     8    4    5 ar   
     9    4   26 1    
    10    5    6 ar   
    11    5   27 1    
    12    6    7 ar   
    13    6   18 1    
    14    7    8 1    
    15    8    9 2    
    16    8   10 1    
    17   10   11 1    
    18   11   12 1    
    19   11   15 1    
    20   11   28 1    
    21   12   13 1    
    22   12   17 1    
    23   12   29 1    
    24   13   14 2    
    25   13   30 1    
    26   14   15 1    
    27   14   31 1    
    28   15   16 1    
    29   15   32 1    
    30   16   33 1    
    31   17   34 1    
    32   18   35 1    
    33   19   20 ar   
    34   19   24 1    
    35   20   21 ar   
    36   20   36 1    
    37   21   22 1    
    38   22   23 1    
    39   23   37 1    
    40   23   38 1    
    41   23   39 1    
    42   24   40 1    
    43   24   41 1    
    44   24   42 1    
@<TRIPOS>SUBSTRUCTURE
     1 NCZ         1 GROUP             0       ****    0 ROOT    
