@<TRIPOS>MOLECULE
NCZ
42   44    1
SMALL
USER_CHARGES


@<TRIPOS>ATOM
      1 C1          0.0637   10.6462    2.6169 C.ar      1 NCZ        -0.1709 
      2 C6          0.1402   10.4202    1.2110 C.ar      1 NCZ         0.0726 
      3 C5          0.0625   11.5573    0.3418 C.ar      1 NCZ        -0.0959 
      4 C7          0.1818   11.3495   -1.0581 C.ar      1 NCZ        -0.0424 
      5 C8          0.3577   10.0750   -1.5768 C.ar      1 NCZ        -0.2379 
      6 C9          0.4108    8.9652   -0.7473 C.ar      1 NCZ         0.2611 
      7 C10         0.2890    9.1066    0.6428 C.ar      1 NCZ        -0.3060 
      8 C11         0.3201    7.8853    1.4931 C.2       1 NCZ         0.6421 
      9 O3          1.3586    7.3427    1.8669 O.2       1 NCZ        -0.4040 
     10 O4         -0.9372    7.4989    1.8299 O.3       1 NCZ        -0.3226 
     11 C12        -1.2689    6.3028    2.5518 C.3       1 NCZ         0.0648 
     12 C13        -0.3831    5.9048    3.7548 C.3       1 NCZ         0.2089 
     13 C14         0.1763    4.5937    3.3019 C.2       1 NCZ        -0.2040 
     14 C15        -0.3902    4.1212    2.1833 C.2       1 NCZ        -0.2040 
     15 C16        -1.3463    5.1122    1.5830 C.3       1 NCZ         0.2089 
     16 O6         -2.6421    4.5872    1.4651 O.3       1 NCZ        -0.6331 
     17 O5         -1.0419    5.7432    4.9849 O.3       1 NCZ        -0.6331 
     18 O2          0.5581    7.7413   -1.3497 O.3       1 NCZ        -0.5507 
     19 C4         -0.1323   12.8545    0.9101 C.ar      1 NCZ        -0.0224 
     20 C3         -0.2417   13.0039    2.2903 C.ar      1 NCZ        -0.1967 
     21 C2         -0.1495   11.9199    3.1509 C.ar      1 NCZ         0.1767 
     22 O1         -0.2946   12.1846    4.4993 O.3       1 NCZ        -0.3596 
     23 C17        -0.2314   11.1101    5.4328 C.3       1 NCZ         0.1374 
     24 C18        -0.2314   14.0849    0.0171 C.3       1 NCZ        -0.1312 
     25 H1          0.1556    9.8010    3.2795 H         1 NCZ         0.1606 
     26 H7          0.1385   12.1858   -1.7392 H         1 NCZ         0.1348 
     27 H8          0.4504    9.9420   -2.6448 H         1 NCZ         0.1341 
     28 H12        -2.2657    6.5406    2.9241 H         1 NCZ         0.1032 
     29 H13         0.4180    6.6174    3.9384 H         1 NCZ         0.0836 
     30 H14         0.9641    4.1435    3.8649 H         1 NCZ         0.1528 
     31 H15        -0.1488    3.1950    1.6844 H         1 NCZ         0.1528 
     32 H16        -0.9891    5.3864    0.5877 H         1 NCZ         0.0836 
     33 H6         -3.0136    4.5420    2.3640 H         1 NCZ         0.4243 
     34 H5         -1.8781    5.2900    4.8191 H         1 NCZ         0.4243 
     35 H2          1.4645    7.3682   -1.3302 H         1 NCZ         0.4084 
     36 H3         -0.4075   13.9857    2.7097 H         1 NCZ         0.1346 
     37 H171       -0.3615   11.5026    6.4411 H         1 NCZ         0.0417 
     38 H172        0.7356   10.6055    5.4001 H         1 NCZ         0.0417 
     39 H173       -1.0241   10.3801    5.2607 H         1 NCZ         0.0417 
     40 H181       -0.4290   14.9900    0.5930 H         1 NCZ         0.0733 
     41 H182       -1.0418   13.9728   -0.7027 H         1 NCZ         0.0733 
     42 H183        0.7009   14.2349   -0.5283 H         1 NCZ         0.0733 
@<TRIPOS>BOND
     1    1    2 ar   
     2    1   21 ar   
     3    1   25 1    
     4    2    3 ar   
     5    2    7 ar   
     6    3    4 ar   
     7    3   19 ar   
     8    4    5 ar   
     9    4   26 1    
    10    5    6 ar   
    11    5   27 1    
    12    6    7 ar   
    13    6   18 1    
    14    7    8 1    
    15    8    9 2    
    16    8   10 1    
    17   10   11 1    
    18   11   12 1    
    19   11   15 1    
    20   11   28 1    
    21   12   13 1    
    22   12   17 1    
    23   12   29 1    
    24   13   14 2    
    25   13   30 1    
    26   14   15 1    
    27   14   31 1    
    28   15   16 1    
    29   15   32 1    
    30   16   33 1    
    31   17   34 1    
    32   18   35 1    
    33   19   20 ar   
    34   19   24 1    
    35   20   21 ar   
    36   20   36 1    
    37   21   22 1    
    38   22   23 1    
    39   23   37 1    
    40   23   38 1    
    41   23   39 1    
    42   24   40 1    
    43   24   41 1    
    44   24   42 1    
@<TRIPOS>SUBSTRUCTURE
     1 NCZ         1 GROUP             0       ****    0 ROOT    
