@<TRIPOS>MOLECULE
NCZ
42   44    1
SMALL
USER_CHARGES


@<TRIPOS>ATOM
      1 C1          0.0712   11.7685    0.3000 C.ar      1 NCZ        -0.1709 
      2 C6          0.3606   10.9254   -0.8137 C.ar      1 NCZ         0.0726 
      3 C5          0.9616   11.5274   -1.9683 C.ar      1 NCZ        -0.0959 
      4 C7          1.2831   10.6993   -3.0751 C.ar      1 NCZ        -0.0424 
      5 C8          1.0093    9.3417   -3.0493 C.ar      1 NCZ        -0.2379 
      6 C9          0.4059    8.7494   -1.9498 C.ar      1 NCZ         0.2611 
      7 C10         0.0704    9.5142   -0.8228 C.ar      1 NCZ        -0.3060 
      8 C11        -0.6422    8.8519    0.3043 C.2       1 NCZ         0.6421 
      9 O3         -1.7565    9.2255    0.6665 O.2       1 NCZ        -0.4040 
     10 O4          0.0664    7.8464    0.9025 O.3       1 NCZ        -0.3226 
     11 C12        -0.5623    7.0093    1.8863 C.3       1 NCZ         0.0648 
     12 C13         0.4062    6.1512    2.7138 C.3       1 NCZ         0.2089 
     13 C14        -0.2417    4.7790    2.6664 C.2       1 NCZ        -0.2040 
     14 C15        -1.3207    4.7424    1.8664 C.2       1 NCZ        -0.2040 
     15 C16        -1.6057    6.0826    1.2339 C.3       1 NCZ         0.2089 
     16 O6         -2.9257    6.5414    1.4665 O.3       1 NCZ        -0.6331 
     17 O5          0.5598    6.6026    4.0446 O.3       1 NCZ        -0.6331 
     18 O2          0.1580    7.3985   -2.0209 O.3       1 NCZ        -0.5507 
     19 C4          1.2159   12.9342   -1.9705 C.ar      1 NCZ        -0.0224 
     20 C3          0.9024   13.7049   -0.8532 C.ar      1 NCZ        -0.1967 
     21 C2          0.3357   13.1317    0.2868 C.ar      1 NCZ         0.1767 
     22 O1          0.0072   13.8273    1.4332 O.3       1 NCZ        -0.3596 
     23 C17         0.1526   15.2427    1.4548 C.3       1 NCZ         0.1374 
     24 C18         1.8282   13.6056   -3.1949 C.3       1 NCZ        -0.1312 
     25 H1         -0.3689   11.3518    1.1927 H         1 NCZ         0.1606 
     26 H7          1.7510   11.1169   -3.9536 H         1 NCZ         0.1348 
     27 H8          1.2792    8.7292   -3.8976 H         1 NCZ         0.1341 
     28 H12        -1.0420    7.6857    2.5839 H         1 NCZ         0.1032 
     29 H13         1.3987    6.1420    2.2666 H         1 NCZ         0.0836 
     30 H14         0.1711    3.9392    3.2059 H         1 NCZ         0.1528 
     31 H15        -1.9264    3.8728    1.6588 H         1 NCZ         0.1528 
     32 H16        -1.4274    5.9970    0.1597 H         1 NCZ         0.0836 
     33 H6         -3.5622    5.9108    1.1035 H         1 NCZ         0.4243 
     34 H5          1.1159    5.9716    4.5139 H         1 NCZ         0.4243 
     35 H2          1.0162    6.9432   -2.1332 H         1 NCZ         0.4084 
     36 H3          1.1118   14.7629   -0.8823 H         1 NCZ         0.1346 
     37 H171       -0.1875   15.6230    2.4180 H         1 NCZ         0.0417 
     38 H172       -0.4543   15.7189    0.6827 H         1 NCZ         0.0417 
     39 H173        1.1949   15.5408    1.3313 H         1 NCZ         0.0417 
     40 H181        1.9606   14.6783   -3.0494 H         1 NCZ         0.0733 
     41 H182        1.1872   13.4686   -4.0662 H         1 NCZ         0.0733 
     42 H183        2.8087   13.1820   -3.4157 H         1 NCZ         0.0733 
@<TRIPOS>BOND
     1    1    2 ar   
     2    1   21 ar   
     3    1   25 1    
     4    2    3 ar   
     5    2    7 ar   
     6    3    4 ar   
     7    3   19 ar   
     8    4    5 ar   
     9    4   26 1    
    10    5    6 ar   
    11    5   27 1    
    12    6    7 ar   
    13    6   18 1    
    14    7    8 1    
    15    8    9 2    
    16    8   10 1    
    17   10   11 1    
    18   11   12 1    
    19   11   15 1    
    20   11   28 1    
    21   12   13 1    
    22   12   17 1    
    23   12   29 1    
    24   13   14 2    
    25   13   30 1    
    26   14   15 1    
    27   14   31 1    
    28   15   16 1    
    29   15   32 1    
    30   16   33 1    
    31   17   34 1    
    32   18   35 1    
    33   19   20 ar   
    34   19   24 1    
    35   20   21 ar   
    36   20   36 1    
    37   21   22 1    
    38   22   23 1    
    39   23   37 1    
    40   23   38 1    
    41   23   39 1    
    42   24   40 1    
    43   24   41 1    
    44   24   42 1    
@<TRIPOS>SUBSTRUCTURE
     1 NCZ         1 GROUP             0       ****    0 ROOT    
