@<TRIPOS>MOLECULE
NCZ
42   44    1
SMALL
USER_CHARGES


@<TRIPOS>ATOM
      1 C1          0.1585   10.6529    3.2119 C.ar      1 NCZ        -0.1709 
      2 C6          0.1896   10.2763    4.5930 C.ar      1 NCZ         0.0726 
      3 C5         -0.1719   11.2861    5.5494 C.ar      1 NCZ        -0.0959 
      4 C7         -0.1084   10.9696    6.9298 C.ar      1 NCZ        -0.0424 
      5 C8          0.3102    9.7219    7.3564 C.ar      1 NCZ        -0.2379 
      6 C9          0.6494    8.7298    6.4520 C.ar      1 NCZ         0.2611 
      7 C10         0.5664    8.9508    5.0603 C.ar      1 NCZ        -0.3060 
      8 C11         0.9235    7.8067    4.1398 C.2       1 NCZ         0.6421 
      9 O3          1.7575    6.9442    4.4182 O.2       1 NCZ        -0.4040 
     10 O4          0.1259    7.7511    3.0526 O.3       1 NCZ        -0.3226 
     11 C12         0.1581    6.7058    2.0891 C.3       1 NCZ         0.0648 
     12 C13        -0.6041    7.1166    0.8182 C.3       1 NCZ         0.2089 
     13 C14        -1.1123    5.7836    0.3117 C.2       1 NCZ        -0.2040 
     14 C15        -1.0941    4.8577    1.2875 C.2       1 NCZ        -0.2040 
     15 C16        -0.5831    5.4509    2.5810 C.3       1 NCZ         0.2089 
     16 O6          0.1938    4.5448    3.3245 O.3       1 NCZ        -0.6331 
     17 O5          0.1625    7.8013   -0.1481 O.3       1 NCZ        -0.6331 
     18 O2          1.0460    7.5294    6.9949 O.3       1 NCZ        -0.5507 
     19 C4         -0.5743   12.5818    5.0926 C.ar      1 NCZ        -0.0224 
     20 C3         -0.6016   12.8679    3.7315 C.ar      1 NCZ        -0.1967 
     21 C2         -0.2428   11.9214    2.7851 C.ar      1 NCZ         0.1767 
     22 O1         -0.3207   12.3102    1.4616 O.3       1 NCZ        -0.3596 
     23 C17        -0.1396   11.3363    0.4367 C.3       1 NCZ         0.1374 
     24 C18        -0.9736   13.6682    6.0854 C.3       1 NCZ        -0.1312 
     25 H1          0.4776    9.9489    2.4641 H         1 NCZ         0.1606 
     26 H7         -0.3689   11.7089    7.6728 H         1 NCZ         0.1348 
     27 H8          0.3653    9.5173    8.4157 H         1 NCZ         0.1341 
     28 H12         1.2096    6.5415    1.8552 H         1 NCZ         0.1032 
     29 H13        -1.4659    7.7345    1.0772 H         1 NCZ         0.0836 
     30 H14        -1.4674    5.6426   -0.6988 H         1 NCZ         0.1528 
     31 H15        -1.4348    3.8342    1.2145 H         1 NCZ         0.1528 
     32 H16        -1.4417    5.7395    3.1908 H         1 NCZ         0.0836 
     33 H6          1.0472    4.4127    2.8998 H         1 NCZ         0.4243 
     34 H5          0.9288    7.2608   -0.3960 H         1 NCZ         0.4243 
     35 H2          1.3078    6.8978    6.3156 H         1 NCZ         0.4084 
     36 H3         -0.9086   13.8461    3.3892 H         1 NCZ         0.1346 
     37 H171       -0.3031   11.8023   -0.5348 H         1 NCZ         0.0417 
     38 H172       -0.8571   10.5183    0.5310 H         1 NCZ         0.0417 
     39 H173        0.8741   10.9319    0.4389 H         1 NCZ         0.0417 
     40 H181       -1.2654   14.5919    5.5828 H         1 NCZ         0.0733 
     41 H182       -0.1403   13.9032    6.7477 H         1 NCZ         0.0733 
     42 H183       -1.8191   13.3433    6.6931 H         1 NCZ         0.0733 
@<TRIPOS>BOND
     1    1    2 ar   
     2    1   21 ar   
     3    1   25 1    
     4    2    3 ar   
     5    2    7 ar   
     6    3    4 ar   
     7    3   19 ar   
     8    4    5 ar   
     9    4   26 1    
    10    5    6 ar   
    11    5   27 1    
    12    6    7 ar   
    13    6   18 1    
    14    7    8 1    
    15    8    9 2    
    16    8   10 1    
    17   10   11 1    
    18   11   12 1    
    19   11   15 1    
    20   11   28 1    
    21   12   13 1    
    22   12   17 1    
    23   12   29 1    
    24   13   14 2    
    25   13   30 1    
    26   14   15 1    
    27   14   31 1    
    28   15   16 1    
    29   15   32 1    
    30   16   33 1    
    31   17   34 1    
    32   18   35 1    
    33   19   20 ar   
    34   19   24 1    
    35   20   21 ar   
    36   20   36 1    
    37   21   22 1    
    38   22   23 1    
    39   23   37 1    
    40   23   38 1    
    41   23   39 1    
    42   24   40 1    
    43   24   41 1    
    44   24   42 1    
@<TRIPOS>SUBSTRUCTURE
     1 NCZ         1 GROUP             0       ****    0 ROOT    
