@<TRIPOS>MOLECULE
NCZ
42   44    1
SMALL
USER_CHARGES


@<TRIPOS>ATOM
      1 C1          0.0637   10.6462    2.6169 C.ar      1 NCZ        -0.1709 
      2 C6          0.1402   10.4202    1.2110 C.ar      1 NCZ         0.0726 
      3 C5          0.0625   11.5573    0.3418 C.ar      1 NCZ        -0.0959 
      4 C7          0.1818   11.3495   -1.0581 C.ar      1 NCZ        -0.0424 
      5 C8          0.3577   10.0750   -1.5768 C.ar      1 NCZ        -0.2379 
      6 C9          0.4108    8.9652   -0.7473 C.ar      1 NCZ         0.2611 
      7 C10         0.2890    9.1066    0.6428 C.ar      1 NCZ        -0.3060 
      8 C11         0.3201    7.8853    1.4931 C.2       1 NCZ         0.6421 
      9 O3          1.3586    7.3427    1.8669 O.2       1 NCZ        -0.4040 
     10 O4         -0.9372    7.4989    1.8299 O.3       1 NCZ        -0.3226 
     11 C12        -1.2689    6.3028    2.5518 C.3       1 NCZ         0.0648 
     12 C13        -0.3831    5.9048    3.7548 C.3       1 NCZ         0.2089 
     13 C14         0.1763    4.5937    3.3019 C.2       1 NCZ        -0.2040 
     14 C15        -0.3902    4.1212    2.1833 C.2       1 NCZ        -0.2040 
     15 C16        -1.3463    5.1122    1.5830 C.3       1 NCZ         0.2089 
     16 O6         -2.6421    4.5872    1.4651 O.3       1 NCZ        -0.6331 
     17 O5         -1.0419    5.7432    4.9849 O.3       1 NCZ        -0.6331 
     18 O2          0.5581    7.7413   -1.3497 O.3       1 NCZ        -0.5507 
     19 C4         -0.1323   12.8545    0.9101 C.ar      1 NCZ        -0.0224 
     20 C3         -0.2417   13.0039    2.2903 C.ar      1 NCZ        -0.1967 
     21 C2         -0.1495   11.9199    3.1509 C.ar      1 NCZ         0.1767 
     22 O1         -0.2946   12.1846    4.4993 O.3       1 NCZ        -0.3596 
     23 C17        -0.2314   11.1101    5.4328 C.3       1 NCZ         0.1374 
     24 C18        -0.2314   14.0849    0.0171 C.3       1 NCZ        -0.1312 
     25 H1          0.1556    9.8010    3.2795 H         1 NCZ         0.1606 
     26 H7          0.1385   12.1858   -1.7392 H         1 NCZ         0.1348 
     27 H8          0.4504    9.9420   -2.6448 H         1 NCZ         0.1341 
     28 H12        -2.2657    6.5406    2.9241 H         1 NCZ         0.1032 
     29 H13         0.4180    6.6174    3.9384 H         1 NCZ         0.0836 
     30 H14         0.9641    4.1435    3.8649 H         1 NCZ         0.1528 
     31 H15        -0.1488    3.1950    1.6844 H         1 NCZ         0.1528 
     32 H16        -0.9891    5.3864    0.5877 H         1 NCZ         0.0836 
     33 H6         -3.0136    4.5420    2.3640 H         1 NCZ         0.4243 
     34 H5         -1.8781    5.2900    4.8191 H         1 NCZ         0.4243 
     35 H2          1.4645    7.3682   -1.3302 H         1 NCZ         0.4084 
     36 H3         -0.4075   13.9857    2.7097 H         1 NCZ         0.1346 
     37 H171       -0.3615   11.5026    6.4411 H         1 NCZ         0.0417 
     38 H172        0.7356   10.6055    5.4001 H         1 NCZ         0.0417 
     39 H173       -1.0241   10.3801    5.2607 H         1 NCZ         0.0417 
     40 H181       -0.4290   14.9900    0.5930 H         1 NCZ         0.0733 
     41 H182       -1.0418   13.9728   -0.7027 H         1 NCZ         0.0733 
     42 H183        0.7009   14.2349   -0.5283 H         1 NCZ         0.0733 
@<TRIPOS>BOND
     1    1    2 ar   
     2    1   21 ar   
     3    1   25 1    
     4    2    3 ar   
     5    2    7 ar   
     6    3    4 ar   
     7    3   19 ar   
     8    4    5 ar   
     9    4   26 1    
    10    5    6 ar   
    11    5   27 1    
    12    6    7 ar   
    13    6   18 1    
    14    7    8 1    
    15    8    9 2    
    16    8   10 1    
    17   10   11 1    
    18   11   12 1    
    19   11   15 1    
    20   11   28 1    
    21   12   13 1    
    22   12   17 1    
    23   12   29 1    
    24   13   14 2    
    25   13   30 1    
    26   14   15 1    
    27   14   31 1    
    28   15   16 1    
    29   15   32 1    
    30   16   33 1    
    31   17   34 1    
    32   18   35 1    
    33   19   20 ar   
    34   19   24 1    
    35   20   21 ar   
    36   20   36 1    
    37   21   22 1    
    38   22   23 1    
    39   23   37 1    
    40   23   38 1    
    41   23   39 1    
    42   24   40 1    
    43   24   41 1    
    44   24   42 1    
@<TRIPOS>SUBSTRUCTURE
     1 NCZ         1 GROUP             0       ****    0 ROOT    
@<TRIPOS>MOLECULE
NCZ
42   44    1
SMALL
USER_CHARGES


@<TRIPOS>ATOM
      1 C1          0.1366   10.7169    2.1268 C.ar      1 NCZ        -0.1709 
      2 C6          0.3756   10.8591    0.7259 C.ar      1 NCZ         0.0726 
      3 C5          0.5388   12.1871    0.2077 C.ar      1 NCZ        -0.0959 
      4 C7          0.8238   12.3470   -1.1731 C.ar      1 NCZ        -0.0424 
      5 C8          0.9528   11.2469   -2.0051 C.ar      1 NCZ        -0.2379 
      6 C9          0.7852    9.9580   -1.5228 C.ar      1 NCZ         0.2611 
      7 C10         0.4597    9.7346   -0.1737 C.ar      1 NCZ        -0.3060 
      8 C11         0.1647    8.3428    0.2816 C.2       1 NCZ         0.6421 
      9 O3          0.8420    7.7419    1.1150 O.2       1 NCZ        -0.4040 
     10 O4         -1.0162    7.9035   -0.2315 O.3       1 NCZ        -0.3226 
     11 C12        -1.5768    6.5974   -0.0101 C.3       1 NCZ         0.0648 
     12 C13        -1.7639    6.1969    1.4530 C.3       1 NCZ         0.2089 
     13 C14        -1.5404    4.7061    1.4135 C.2       1 NCZ        -0.2040 
     14 C15        -1.0420    4.3143    0.2316 C.2       1 NCZ        -0.2040 
     15 C16        -0.8778    5.4568   -0.7416 C.3       1 NCZ         0.2089 
     16 O6         -1.4418    5.1181   -1.9892 O.3       1 NCZ        -0.6331 
     17 O5         -3.0510    6.5387    1.8667 O.3       1 NCZ        -0.6331 
     18 O2          0.9580    8.9417   -2.4310 O.3       1 NCZ        -0.5507 
     19 C4          0.4066   13.3032    1.0911 C.ar      1 NCZ        -0.0224 
     20 C3          0.1559   13.0974    2.4443 C.ar      1 NCZ        -0.1967 
     21 C2          0.0424   11.8225    2.9771 C.ar      1 NCZ         0.1767 
     22 O1         -0.1727   11.7392    4.3387 O.3       1 NCZ        -0.3596 
     23 C17         0.0985   10.5100    5.0058 C.3       1 NCZ         0.1374 
     24 C18         0.5407   14.7278    0.5674 C.3       1 NCZ        -0.1312 
     25 H1          0.0296    9.7277    2.5392 H         1 NCZ         0.1606 
     26 H7          0.9581   13.3328   -1.5923 H         1 NCZ         0.1348 
     27 H8          1.1922   11.3965   -3.0477 H         1 NCZ         0.1341 
     28 H12        -2.5715    6.6517   -0.4468 H         1 NCZ         0.1032 
     29 H13        -1.0398    6.6355    2.1362 H         1 NCZ         0.0836 
     30 H14        -1.7243    4.0710    2.2666 H         1 NCZ         0.1528 
     31 H15        -0.7512    3.3157   -0.0358 H         1 NCZ         0.1528 
     32 H16         0.1579    5.7419   -0.8843 H         1 NCZ         0.0836 
     33 H6         -0.8799    4.4517   -2.4079 H         1 NCZ         0.4243 
     34 H5         -3.2923    5.9254    2.5744 H         1 NCZ         0.4243 
     35 H2          1.5218    8.2088   -2.1328 H         1 NCZ         0.4084 
     36 H3          0.0630   13.9454    3.1070 H         1 NCZ         0.1346 
     37 H171        0.0575   10.6711    6.0828 H         1 NCZ         0.0417 
     38 H172        1.0930   10.1289    4.7678 H         1 NCZ         0.0417 
     39 H173       -0.6419    9.7490    4.7657 H         1 NCZ         0.0417 
     40 H181        0.3895   15.4659    1.3554 H         1 NCZ         0.0733 
     41 H182       -0.2011   14.9211   -0.2077 H         1 NCZ         0.0733 
     42 H183        1.5350   14.8886    0.1493 H         1 NCZ         0.0733 
@<TRIPOS>BOND
     1    1    2 ar   
     2    1   21 ar   
     3    1   25 1    
     4    2    3 ar   
     5    2    7 ar   
     6    3    4 ar   
     7    3   19 ar   
     8    4    5 ar   
     9    4   26 1    
    10    5    6 ar   
    11    5   27 1    
    12    6    7 ar   
    13    6   18 1    
    14    7    8 1    
    15    8    9 2    
    16    8   10 1    
    17   10   11 1    
    18   11   12 1    
    19   11   15 1    
    20   11   28 1    
    21   12   13 1    
    22   12   17 1    
    23   12   29 1    
    24   13   14 2    
    25   13   30 1    
    26   14   15 1    
    27   14   31 1    
    28   15   16 1    
    29   15   32 1    
    30   16   33 1    
    31   17   34 1    
    32   18   35 1    
    33   19   20 ar   
    34   19   24 1    
    35   20   21 ar   
    36   20   36 1    
    37   21   22 1    
    38   22   23 1    
    39   23   37 1    
    40   23   38 1    
    41   23   39 1    
    42   24   40 1    
    43   24   41 1    
    44   24   42 1    
@<TRIPOS>SUBSTRUCTURE
     1 NCZ         1 GROUP             0       ****    0 ROOT    
@<TRIPOS>MOLECULE
NCZ
42   44    1
SMALL
USER_CHARGES


@<TRIPOS>ATOM
      1 C1         -0.0130   10.7282    2.1555 C.ar      1 NCZ        -0.1709 
      2 C6          0.2545   10.8633    0.7593 C.ar      1 NCZ         0.0726 
      3 C5          0.3723   12.1914    0.2289 C.ar      1 NCZ        -0.0959 
      4 C7          0.6888   12.3484   -1.1449 C.ar      1 NCZ        -0.0424 
      5 C8          0.8808   11.2460   -1.9612 C.ar      1 NCZ        -0.2379 
      6 C9          0.7470    9.9560   -1.4708 C.ar      1 NCZ         0.2611 
      7 C10         0.4039    9.7331   -0.1253 C.ar      1 NCZ        -0.3060 
      8 C11         0.1280    8.3381    0.3337 C.2       1 NCZ         0.6421 
      9 O3          0.7961    7.7422    1.1785 O.2       1 NCZ        -0.4040 
     10 O4         -1.0416    7.8931   -0.1950 O.3       1 NCZ        -0.3226 
     11 C12        -1.6120    6.5913    0.0206 C.3       1 NCZ         0.0648 
     12 C13        -1.8668    6.2086    1.4788 C.3       1 NCZ         0.2089 
     13 C14        -1.6076    4.7215    1.4662 C.2       1 NCZ        -0.2040 
     14 C15        -1.0421    4.3204    0.3170 C.2       1 NCZ        -0.2040 
     15 C16        -0.8803    5.4465   -0.6757 C.3       1 NCZ         0.2089 
     16 O6         -1.4405    5.0814   -1.9191 O.3       1 NCZ        -0.6331 
     17 O5         -3.1739    6.5418    1.8666 O.3       1 NCZ        -0.6331 
     18 O2          0.9579    8.9415   -2.3730 O.3       1 NCZ        -0.5507 
     19 C4          0.1611   13.3113    1.0922 C.ar      1 NCZ        -0.0224 
     20 C3         -0.1131   13.1110    2.4414 C.ar      1 NCZ        -0.1967 
     21 C2         -0.1748   11.8393    2.9885 C.ar      1 NCZ         0.1767 
     22 O1         -0.4123   11.7620    4.3462 O.3       1 NCZ        -0.3596 
     23 C17         0.0006   10.5914    5.0447 C.3       1 NCZ         0.1374 
     24 C18         0.2341   14.7341    0.5515 C.3       1 NCZ        -0.1312 
     25 H1         -0.0857    9.7406    2.5793 H         1 NCZ         0.1606 
     26 H7          0.7941   13.3342   -1.5717 H         1 NCZ         0.1348 
     27 H8          1.1363   11.3946   -3.0002 H         1 NCZ         0.1341 
     28 H12        -2.5862    6.6442   -0.4588 H         1 NCZ         0.1032 
     29 H13        -1.1692    6.6726    2.1738 H         1 NCZ         0.0836 
     30 H14        -1.8122    4.0954    2.3199 H         1 NCZ         0.1528 
     31 H15        -0.7164    3.3217    0.0832 H         1 NCZ         0.1528 
     32 H16         0.1576    5.7420   -0.8111 H         1 NCZ         0.0836 
     33 H6         -0.8640    4.4270   -2.3371 H         1 NCZ         0.4243 
     34 H5         -3.7893    5.9687    1.3896 H         1 NCZ         0.4243 
     35 H2          1.5257    8.2142   -2.0701 H         1 NCZ         0.4084 
     36 H3         -0.2642   13.9614    3.0899 H         1 NCZ         0.1346 
     37 H171       -0.0713   10.7707    6.1175 H         1 NCZ         0.0417 
     38 H172        1.0369   10.3289    4.8227 H         1 NCZ         0.0417 
     39 H173       -0.6383    9.7405    4.8174 H         1 NCZ         0.0417 
     40 H181        0.0132   15.4733    1.3230 H         1 NCZ         0.0733 
     41 H182       -0.4909   14.8760   -0.2504 H         1 NCZ         0.0733 
     42 H183        1.2316   14.9449    0.1646 H         1 NCZ         0.0733 
@<TRIPOS>BOND
     1    1    2 ar   
     2    1   21 ar   
     3    1   25 1    
     4    2    3 ar   
     5    2    7 ar   
     6    3    4 ar   
     7    3   19 ar   
     8    4    5 ar   
     9    4   26 1    
    10    5    6 ar   
    11    5   27 1    
    12    6    7 ar   
    13    6   18 1    
    14    7    8 1    
    15    8    9 2    
    16    8   10 1    
    17   10   11 1    
    18   11   12 1    
    19   11   15 1    
    20   11   28 1    
    21   12   13 1    
    22   12   17 1    
    23   12   29 1    
    24   13   14 2    
    25   13   30 1    
    26   14   15 1    
    27   14   31 1    
    28   15   16 1    
    29   15   32 1    
    30   16   33 1    
    31   17   34 1    
    32   18   35 1    
    33   19   20 ar   
    34   19   24 1    
    35   20   21 ar   
    36   20   36 1    
    37   21   22 1    
    38   22   23 1    
    39   23   37 1    
    40   23   38 1    
    41   23   39 1    
    42   24   40 1    
    43   24   41 1    
    44   24   42 1    
@<TRIPOS>SUBSTRUCTURE
     1 NCZ         1 GROUP             0       ****    0 ROOT    
@<TRIPOS>MOLECULE
NCZ
42   44    1
SMALL
USER_CHARGES


@<TRIPOS>ATOM
      1 C1         -0.2420   10.9559    2.2998 C.ar      1 NCZ        -0.1709 
      2 C6          0.1656   10.7104    0.9593 C.ar      1 NCZ         0.0726 
      3 C5          0.8032   11.7777    0.2491 C.ar      1 NCZ        -0.0959 
      4 C7          1.3580   11.4927   -1.0277 C.ar      1 NCZ        -0.0424 
      5 C8          1.2980   10.2120   -1.5659 C.ar      1 NCZ        -0.2379 
      6 C9          0.6092    9.1963   -0.9181 C.ar      1 NCZ         0.2611 
      7 C10        -0.0159    9.4394    0.3131 C.ar      1 NCZ        -0.3060 
      8 C11        -0.8928    8.3907    0.8997 C.2       1 NCZ         0.6421 
      9 O3         -2.0988    8.3160    0.6666 O.2       1 NCZ        -0.4040 
     10 O4         -0.2407    7.5987    1.7671 O.3       1 NCZ        -0.3226 
     11 C12        -0.9183    6.5480    2.4676 C.3       1 NCZ         0.0648 
     12 C13        -0.0367    6.1042    3.6327 C.3       1 NCZ         0.2089 
     13 C14         0.2457    4.6757    3.2853 C.2       1 NCZ        -0.2040 
     14 C15        -0.4393    4.2221    2.2263 C.2       1 NCZ        -0.2040 
     15 C16        -1.2050    5.3350    1.5659 C.3       1 NCZ         0.2089 
     16 O6         -2.5766    5.0546    1.4666 O.3       1 NCZ        -0.6331 
     17 O5         -0.6420    6.1923    4.9076 O.3       1 NCZ        -0.6331 
     18 O2          0.5580    7.9635   -1.5217 O.3       1 NCZ        -0.5507 
     19 C4          0.8609   13.0739    0.8583 C.ar      1 NCZ        -0.0224 
     20 C3          0.3861   13.2625    2.1539 C.ar      1 NCZ        -0.1967 
     21 C2         -0.1238   12.2103    2.8960 C.ar      1 NCZ         0.1767 
     22 O1         -0.5089   12.4723    4.1942 O.3       1 NCZ        -0.3596 
     23 C17        -0.3232   11.4416    5.1619 C.3       1 NCZ         0.1374 
     24 C18         1.4781   14.2605    0.1360 C.3       1 NCZ        -0.1312 
     25 H1         -0.6420   10.1421    2.8724 H         1 NCZ         0.1606 
     26 H7          1.8748   12.2623   -1.5793 H         1 NCZ         0.1348 
     27 H8          1.7688   10.0086   -2.5171 H         1 NCZ         0.1341 
     28 H12        -1.8555    6.9419    2.8584 H         1 NCZ         0.1032 
     29 H13         0.9045    6.6587    3.6471 H         1 NCZ         0.0836 
     30 H14         0.9588    4.1418    3.8666 H         1 NCZ         0.1528 
     31 H15        -0.3871    3.2294    1.8035 H         1 NCZ         0.1528 
     32 H16        -0.8021    5.4901    0.5625 H         1 NCZ         0.0836 
     33 H6         -2.9213    4.9418    2.3702 H         1 NCZ         0.4243 
     34 H5         -1.0778    7.0428    5.0219 H         1 NCZ         0.4243 
     35 H2          1.4397    7.5946   -1.7337 H         1 NCZ         0.4084 
     36 H3          0.4511   14.2372    2.6151 H         1 NCZ         0.1346 
     37 H171       -0.4642   11.8593    6.1587 H         1 NCZ         0.0417 
     38 H172        0.6854   11.0257    5.1203 H         1 NCZ         0.0417 
     39 H173       -1.0425   10.6308    5.0479 H         1 NCZ         0.0417 
     40 H181        1.1235   15.2051    0.5505 H         1 NCZ         0.0733 
     41 H182        1.2368   14.2710   -0.9267 H         1 NCZ         0.0733 
     42 H183        2.5575   14.2289    0.2666 H         1 NCZ         0.0733 
@<TRIPOS>BOND
     1    1    2 ar   
     2    1   21 ar   
     3    1   25 1    
     4    2    3 ar   
     5    2    7 ar   
     6    3    4 ar   
     7    3   19 ar   
     8    4    5 ar   
     9    4   26 1    
    10    5    6 ar   
    11    5   27 1    
    12    6    7 ar   
    13    6   18 1    
    14    7    8 1    
    15    8    9 2    
    16    8   10 1    
    17   10   11 1    
    18   11   12 1    
    19   11   15 1    
    20   11   28 1    
    21   12   13 1    
    22   12   17 1    
    23   12   29 1    
    24   13   14 2    
    25   13   30 1    
    26   14   15 1    
    27   14   31 1    
    28   15   16 1    
    29   15   32 1    
    30   16   33 1    
    31   17   34 1    
    32   18   35 1    
    33   19   20 ar   
    34   19   24 1    
    35   20   21 ar   
    36   20   36 1    
    37   21   22 1    
    38   22   23 1    
    39   23   37 1    
    40   23   38 1    
    41   23   39 1    
    42   24   40 1    
    43   24   41 1    
    44   24   42 1    
@<TRIPOS>SUBSTRUCTURE
     1 NCZ         1 GROUP             0       ****    0 ROOT    
@<TRIPOS>MOLECULE
NCZ
42   44    1
SMALL
USER_CHARGES


@<TRIPOS>ATOM
      1 C1         -0.2186   11.1234    2.3096 C.ar      1 NCZ        -0.1709 
      2 C6          0.2402   10.9953    0.9673 C.ar      1 NCZ         0.0726 
      3 C5          0.8333   12.1424    0.3481 C.ar      1 NCZ        -0.0959 
      4 C7          1.3583   12.0018   -0.9639 C.ar      1 NCZ        -0.0424 
      5 C8          1.3074   10.7838   -1.6295 C.ar      1 NCZ        -0.2379 
      6 C9          0.6922    9.6807   -1.0562 C.ar      1 NCZ         0.2611 
      7 C10         0.1312    9.7688    0.2250 C.ar      1 NCZ        -0.3060 
      8 C11        -0.6453    8.6224    0.7640 C.2       1 NCZ         0.6421 
      9 O3         -1.8693    8.5686    0.6656 O.2       1 NCZ        -0.4040 
     10 O4          0.1111    7.7454    1.4668 O.3       1 NCZ        -0.3226 
     11 C12        -0.4969    6.6913    2.2301 C.3       1 NCZ         0.0648 
     12 C13         0.5436    5.9650    3.0837 C.3       1 NCZ         0.2089 
     13 C14         0.1062    4.5255    2.9545 C.2       1 NCZ        -0.2040 
     14 C15        -0.8233    4.3375    2.0064 C.2       1 NCZ        -0.2040 
     15 C16        -1.2435    5.6404    1.3856 C.3       1 NCZ         0.2089 
     16 O6         -2.6418    5.7913    1.4666 O.3       1 NCZ        -0.6331 
     17 O5          0.5576    6.3940    4.4299 O.3       1 NCZ        -0.6331 
     18 O2          0.6121    8.5344   -1.8062 O.3       1 NCZ        -0.5507 
     19 C4          0.8700   13.3784    1.0696 C.ar      1 NCZ        -0.0224 
     20 C3          0.3757   13.4463    2.3701 C.ar      1 NCZ        -0.1967 
     21 C2         -0.1378   12.3279    3.0079 C.ar      1 NCZ         0.1767 
     22 O1         -0.5636   12.4754    4.3111 O.3       1 NCZ        -0.3596 
     23 C17        -0.3830   11.3694    5.1918 C.3       1 NCZ         0.1374 
     24 C18         1.4699   14.6274    0.4420 C.3       1 NCZ        -0.1312 
     25 H1         -0.6305   10.2582    2.7978 H         1 NCZ         0.1606 
     26 H7          1.8200   12.8434   -1.4560 H         1 NCZ         0.1348 
     27 H8          1.7254   10.7019   -2.6223 H         1 NCZ         0.1341 
     28 H12        -1.2059    7.1646    2.9083 H         1 NCZ         0.1032 
     29 H13         1.5460    6.0772    2.6667 H         1 NCZ         0.0836 
     30 H14         0.5579    3.7419    3.5189 H         1 NCZ         0.1528 
     31 H15        -1.2425    3.3910    1.6962 H         1 NCZ         0.1528 
     32 H16        -0.9128    5.6710    0.3450 H         1 NCZ         0.0836 
     33 H6         -2.9260    5.4665    2.3342 H         1 NCZ         0.4243 
     34 H5          1.1511    5.8133    4.9215 H         1 NCZ         0.4243 
     35 H2          1.4494    8.0404   -1.8677 H         1 NCZ         0.4084 
     36 H3          0.4147   14.3790    2.9135 H         1 NCZ         0.1346 
     37 H171       -0.6127   11.6803    6.2108 H         1 NCZ         0.0417 
     38 H172        0.6482   11.0131    5.1802 H         1 NCZ         0.0417 
     39 H173       -1.0423   10.5369    4.9496 H         1 NCZ         0.0417 
     40 H181        1.2876   15.5142    1.0499 H         1 NCZ         0.0733 
     41 H182        1.0450   14.8167   -0.5439 H         1 NCZ         0.0733 
     42 H183        2.5482   14.5064    0.3494 H         1 NCZ         0.0733 
@<TRIPOS>BOND
     1    1    2 ar   
     2    1   21 ar   
     3    1   25 1    
     4    2    3 ar   
     5    2    7 ar   
     6    3    4 ar   
     7    3   19 ar   
     8    4    5 ar   
     9    4   26 1    
    10    5    6 ar   
    11    5   27 1    
    12    6    7 ar   
    13    6   18 1    
    14    7    8 1    
    15    8    9 2    
    16    8   10 1    
    17   10   11 1    
    18   11   12 1    
    19   11   15 1    
    20   11   28 1    
    21   12   13 1    
    22   12   17 1    
    23   12   29 1    
    24   13   14 2    
    25   13   30 1    
    26   14   15 1    
    27   14   31 1    
    28   15   16 1    
    29   15   32 1    
    30   16   33 1    
    31   17   34 1    
    32   18   35 1    
    33   19   20 ar   
    34   19   24 1    
    35   20   21 ar   
    36   20   36 1    
    37   21   22 1    
    38   22   23 1    
    39   23   37 1    
    40   23   38 1    
    41   23   39 1    
    42   24   40 1    
    43   24   41 1    
    44   24   42 1    
@<TRIPOS>SUBSTRUCTURE
     1 NCZ         1 GROUP             0       ****    0 ROOT    
@<TRIPOS>MOLECULE
NCZ
42   44    1
SMALL
USER_CHARGES


@<TRIPOS>ATOM
      1 C1         -0.1338   10.8972    2.2016 C.ar      1 NCZ        -0.1709 
      2 C6          0.1580   10.4969    0.8650 C.ar      1 NCZ         0.0726 
      3 C5          0.4521   11.5257   -0.0905 C.ar      1 NCZ        -0.0959 
      4 C7          0.8114   11.1431   -1.4102 C.ar      1 NCZ        -0.0424 
      5 C8          0.8583    9.8068   -1.7772 C.ar      1 NCZ        -0.2379 
      6 C9          0.5350    8.8070   -0.8736 C.ar      1 NCZ         0.2611 
      7 C10         0.1852    9.1176    0.4494 C.ar      1 NCZ        -0.3060 
      8 C11        -0.1437    7.9997    1.3807 C.2       1 NCZ         0.6421 
      9 O3         -1.2860    7.5529    1.4666 O.2       1 NCZ        -0.4040 
     10 O4          0.9580    7.5829    2.0856 O.3       1 NCZ        -0.3226 
     11 C12         1.0148    6.5955    3.1454 C.3       1 NCZ         0.0648 
     12 C13         0.0082    5.4241    3.1697 C.3       1 NCZ         0.2089 
     13 C14        -0.6474    5.5906    4.5129 C.2       1 NCZ        -0.2040 
     14 C15        -0.1691    6.6189    5.2199 C.2       1 NCZ        -0.2040 
     15 C16         1.0147    7.2430    4.5466 C.3       1 NCZ         0.2089 
     16 O6          2.1580    6.9418    5.3142 O.3       1 NCZ        -0.6331 
     17 O5          0.5580    4.1418    3.0660 O.3       1 NCZ        -0.6331 
     18 O2          0.5580    7.5157   -1.3333 O.3       1 NCZ        -0.5507 
     19 C4          0.3808   12.8955    0.3154 C.ar      1 NCZ        -0.0224 
     20 C3          0.0565   13.2197    1.6302 C.ar      1 NCZ        -0.1967 
     21 C2         -0.1787   12.2398    2.5826 C.ar      1 NCZ         0.1767 
     22 O1         -0.4560   12.6674    3.8662 O.3       1 NCZ        -0.3596 
     23 C17        -0.2979   11.7495    4.9444 C.3       1 NCZ         0.1374 
     24 C18         0.6642   14.0140   -0.6793 C.3       1 NCZ        -0.1312 
     25 H1         -0.3167   10.1403    2.9409 H         1 NCZ         0.1606 
     26 H7          1.0563   11.8922   -2.1478 H         1 NCZ         0.1348 
     27 H8          1.1386    9.5385   -2.7857 H         1 NCZ         0.1341 
     28 H12         2.0074    6.1781    2.9682 H         1 NCZ         0.1032 
     29 H13        -0.7424    5.4817    2.3881 H         1 NCZ         0.0836 
     30 H14        -1.4420    4.9419    4.8292 H         1 NCZ         0.1528 
     31 H15        -0.5138    6.9388    6.1926 H         1 NCZ         0.1528 
     32 H16         0.8867    8.3238    4.4691 H         1 NCZ         0.0836 
     33 H6          2.1580    5.9835    5.4666 H         1 NCZ         0.4243 
     34 H5          1.4354    4.1726    2.6666 H         1 NCZ         0.4243 
     35 H2          1.4677    7.2008   -1.5338 H         1 NCZ         0.4084 
     36 H3          0.0025   14.2559    1.9308 H         1 NCZ         0.1346 
     37 H171       -0.4252   12.2797    5.8882 H         1 NCZ         0.0417 
     38 H172        0.6982   11.3034    4.9489 H         1 NCZ         0.0417 
     39 H173       -1.0421   10.9536    4.9146 H         1 NCZ         0.0417 
     40 H181        0.5354   14.9997   -0.2304 H         1 NCZ         0.0733 
     41 H182       -0.0139   13.9499   -1.5307 H         1 NCZ         0.0733 
     42 H183        1.6898   13.9480   -1.0432 H         1 NCZ         0.0733 
@<TRIPOS>BOND
     1    1    2 ar   
     2    1   21 ar   
     3    1   25 1    
     4    2    3 ar   
     5    2    7 ar   
     6    3    4 ar   
     7    3   19 ar   
     8    4    5 ar   
     9    4   26 1    
    10    5    6 ar   
    11    5   27 1    
    12    6    7 ar   
    13    6   18 1    
    14    7    8 1    
    15    8    9 2    
    16    8   10 1    
    17   10   11 1    
    18   11   12 1    
    19   11   15 1    
    20   11   28 1    
    21   12   13 1    
    22   12   17 1    
    23   12   29 1    
    24   13   14 2    
    25   13   30 1    
    26   14   15 1    
    27   14   31 1    
    28   15   16 1    
    29   15   32 1    
    30   16   33 1    
    31   17   34 1    
    32   18   35 1    
    33   19   20 ar   
    34   19   24 1    
    35   20   21 ar   
    36   20   36 1    
    37   21   22 1    
    38   22   23 1    
    39   23   37 1    
    40   23   38 1    
    41   23   39 1    
    42   24   40 1    
    43   24   41 1    
    44   24   42 1    
@<TRIPOS>SUBSTRUCTURE
     1 NCZ         1 GROUP             0       ****    0 ROOT    
@<TRIPOS>MOLECULE
NCZ
42   44    1
SMALL
USER_CHARGES


@<TRIPOS>ATOM
      1 C1         -0.4213   10.9865    2.2481 C.ar      1 NCZ        -0.1709 
      2 C6          0.1558   10.7597    0.9733 C.ar      1 NCZ         0.0726 
      3 C5          0.9502   11.8088    0.4103 C.ar      1 NCZ        -0.0959 
      4 C7          1.5654   11.5666   -0.8463 C.ar      1 NCZ        -0.0424 
      5 C8          1.4355   10.3393   -1.4890 C.ar      1 NCZ        -0.2379 
      6 C9          0.6559    9.3247   -0.9515 C.ar      1 NCZ         0.2611 
      7 C10        -0.0206    9.5224    0.2585 C.ar      1 NCZ        -0.3060 
      8 C11        -0.9046    8.4409    0.7767 C.2       1 NCZ         0.6421 
      9 O3         -2.1298    8.4665    0.6665 O.2       1 NCZ        -0.4040 
     10 O4         -0.2262    7.5185    1.4919 O.3       1 NCZ        -0.3226 
     11 C12        -0.9134    6.4477    2.1516 C.3       1 NCZ         0.0648 
     12 C13        -0.0666    5.8962    3.2976 C.3       1 NCZ         0.2089 
     13 C14        -0.0032    4.4243    2.9911 C.2       1 NCZ        -0.2040 
     14 C15        -0.6422    4.0888    1.8629 C.2       1 NCZ        -0.2040 
     15 C16        -1.2571    5.2893    1.2015 C.3       1 NCZ         0.2089 
     16 O6         -2.6411    5.1177    1.0666 O.3       1 NCZ        -0.6331 
     17 O5         -0.6409    6.1413    4.5637 O.3       1 NCZ        -0.6331 
     18 O2          0.5580    8.1418   -1.6452 O.3       1 NCZ        -0.5507 
     19 C4          1.0882   13.0384    1.1430 C.ar      1 NCZ        -0.0224 
     20 C3          0.4875   13.1906    2.3889 C.ar      1 NCZ        -0.1967 
     21 C2         -0.2420   12.1669    2.9601 C.ar      1 NCZ         0.1767 
     22 O1         -0.7838   12.3678    4.2092 O.3       1 NCZ        -0.3596 
     23 C17        -0.5182   11.3555    5.1760 C.3       1 NCZ         0.1374 
     24 C18         1.9520   14.1827    0.6503 C.3       1 NCZ        -0.1312 
     25 H1         -1.0337   10.2198    2.6666 H         1 NCZ         0.1606 
     26 H7          2.1589   12.3327   -1.3149 H         1 NCZ         0.1348 
     27 H8          1.9415   10.1755   -2.4296 H         1 NCZ         0.1341 
     28 H12        -1.8312    6.8642    2.5720 H         1 NCZ         0.1032 
     29 H13         0.9448    6.3076    3.2708 H         1 NCZ         0.0836 
     30 H14         0.5441    3.7483    3.6070 H         1 NCZ         0.1528 
     31 H15        -0.7040    3.1007    1.4286 H         1 NCZ         0.1528 
     32 H16        -0.8011    5.4388    0.2200 H         1 NCZ         0.0836 
     33 H6         -3.0104    4.9419    1.9416 H         1 NCZ         0.4243 
     34 H5         -1.5047    5.7168    4.5953 H         1 NCZ         0.4243 
     35 H2          1.4258    7.7300   -1.8249 H         1 NCZ         0.4084 
     36 H3          0.6148   14.1087    2.9438 H         1 NCZ         0.1346 
     37 H171       -0.8618   11.6933    6.1534 H         1 NCZ         0.0417 
     38 H172        0.5507   11.1491    5.2567 H         1 NCZ         0.0417 
     39 H173       -1.0354   10.4227    4.9558 H         1 NCZ         0.0417 
     40 H181        1.5899   15.1396    1.0289 H         1 NCZ         0.0733 
     41 H182        1.9799   14.2691   -0.4338 H         1 NCZ         0.0733 
     42 H183        2.9558   14.0315    1.0498 H         1 NCZ         0.0733 
@<TRIPOS>BOND
     1    1    2 ar   
     2    1   21 ar   
     3    1   25 1    
     4    2    3 ar   
     5    2    7 ar   
     6    3    4 ar   
     7    3   19 ar   
     8    4    5 ar   
     9    4   26 1    
    10    5    6 ar   
    11    5   27 1    
    12    6    7 ar   
    13    6   18 1    
    14    7    8 1    
    15    8    9 2    
    16    8   10 1    
    17   10   11 1    
    18   11   12 1    
    19   11   15 1    
    20   11   28 1    
    21   12   13 1    
    22   12   17 1    
    23   12   29 1    
    24   13   14 2    
    25   13   30 1    
    26   14   15 1    
    27   14   31 1    
    28   15   16 1    
    29   15   32 1    
    30   16   33 1    
    31   17   34 1    
    32   18   35 1    
    33   19   20 ar   
    34   19   24 1    
    35   20   21 ar   
    36   20   36 1    
    37   21   22 1    
    38   22   23 1    
    39   23   37 1    
    40   23   38 1    
    41   23   39 1    
    42   24   40 1    
    43   24   41 1    
    44   24   42 1    
@<TRIPOS>SUBSTRUCTURE
     1 NCZ         1 GROUP             0       ****    0 ROOT    
@<TRIPOS>MOLECULE
NCZ
42   44    1
SMALL
USER_CHARGES


@<TRIPOS>ATOM
      1 C1          0.3342    7.9171    2.3496 C.ar      1 NCZ        -0.1709 
      2 C6         -0.2609    6.7069    1.8668 C.ar      1 NCZ         0.0726 
      3 C5         -0.4819    5.6706    2.8370 C.ar      1 NCZ        -0.0959 
      4 C7         -0.9220    4.4056    2.3779 C.ar      1 NCZ        -0.0424 
      5 C8         -1.2346    4.1845    1.0530 C.ar      1 NCZ        -0.2379 
      6 C9         -1.1312    5.1998    0.1208 C.ar      1 NCZ         0.2611 
      7 C10        -0.6421    6.4770    0.4780 C.ar      1 NCZ        -0.3060 
      8 C11        -0.4375    7.4906   -0.6233 C.2       1 NCZ         0.6421 
      9 O3         -0.2250    7.2020   -1.8033 O.2       1 NCZ        -0.4040 
     10 O4         -0.6560    8.7678   -0.2258 O.3       1 NCZ        -0.3226 
     11 C12        -0.4857    9.8777   -1.1130 C.3       1 NCZ         0.0648 
     12 C13         0.9910   10.2604   -1.3160 C.3       1 NCZ         0.2089 
     13 C14         0.8950   11.7652   -1.4498 C.2       1 NCZ        -0.2040 
     14 C15        -0.2942   12.2287   -1.0223 C.2       1 NCZ        -0.2040 
     15 C16        -1.1766   11.1086   -0.5194 C.3       1 NCZ         0.2089 
     16 O6         -2.5211   11.2462   -0.9335 O.3       1 NCZ        -0.6331 
     17 O5          1.5948    9.6672   -2.4480 O.3       1 NCZ        -0.6331 
     18 O2         -1.5397    4.8703   -1.1491 O.3       1 NCZ        -0.5507 
     19 C4         -0.2488    5.9385    4.2276 C.ar      1 NCZ        -0.0224 
     20 C3          0.2607    7.1658    4.6263 C.ar      1 NCZ        -0.1967 
     21 C2          0.5580    8.1597    3.7010 C.ar      1 NCZ         0.1767 
     22 O1          0.9579    9.4338    4.0484 O.3       1 NCZ        -0.3596 
     23 C17         1.2446    9.7335    5.4106 C.3       1 NCZ         0.1374 
     24 C18        -0.6317    4.9418    5.3172 C.3       1 NCZ        -0.1312 
     25 H1          0.6018    8.7133    1.6791 H         1 NCZ         0.1606 
     26 H7         -1.0413    3.5900    3.0666 H         1 NCZ         0.1348 
     27 H8         -1.5795    3.2059    0.7535 H         1 NCZ         0.1341 
     28 H12        -0.9433    9.6412   -2.0766 H         1 NCZ         0.1032 
     29 H13         1.5792   10.0231   -0.4304 H         1 NCZ         0.0836 
     30 H14         1.7197   12.3574   -1.8200 H         1 NCZ         0.1528 
     31 H15        -0.6024   13.2630   -0.9823 H         1 NCZ         0.1528 
     32 H16        -1.1298   11.0942    0.5720 H         1 NCZ         0.0836 
     33 H6         -3.0573   10.6333   -0.4196 H         1 NCZ         0.4243 
     34 H5          1.8435    8.7494   -2.2479 H         1 NCZ         0.4243 
     35 H2         -1.6478    3.9227   -1.2701 H         1 NCZ         0.4084 
     36 H3          0.3897    7.3470    5.6817 H         1 NCZ         0.1346 
     37 H171        1.6039   10.7598    5.4834 H         1 NCZ         0.0417 
     38 H172        2.0234    9.0832    5.8128 H         1 NCZ         0.0417 
     39 H173        0.3520    9.6525    6.0326 H         1 NCZ         0.0417 
     40 H181       -0.2117    5.2268    6.2817 H         1 NCZ         0.0733 
     41 H182       -0.2420    3.9504    5.0992 H         1 NCZ         0.0733 
     42 H183       -1.7112    4.9046    5.4619 H         1 NCZ         0.0733 
@<TRIPOS>BOND
     1    1    2 ar   
     2    1   21 ar   
     3    1   25 1    
     4    2    3 ar   
     5    2    7 ar   
     6    3    4 ar   
     7    3   19 ar   
     8    4    5 ar   
     9    4   26 1    
    10    5    6 ar   
    11    5   27 1    
    12    6    7 ar   
    13    6   18 1    
    14    7    8 1    
    15    8    9 2    
    16    8   10 1    
    17   10   11 1    
    18   11   12 1    
    19   11   15 1    
    20   11   28 1    
    21   12   13 1    
    22   12   17 1    
    23   12   29 1    
    24   13   14 2    
    25   13   30 1    
    26   14   15 1    
    27   14   31 1    
    28   15   16 1    
    29   15   32 1    
    30   16   33 1    
    31   17   34 1    
    32   18   35 1    
    33   19   20 ar   
    34   19   24 1    
    35   20   21 ar   
    36   20   36 1    
    37   21   22 1    
    38   22   23 1    
    39   23   37 1    
    40   23   38 1    
    41   23   39 1    
    42   24   40 1    
    43   24   41 1    
    44   24   42 1    
@<TRIPOS>SUBSTRUCTURE
     1 NCZ         1 GROUP             0       ****    0 ROOT    
@<TRIPOS>MOLECULE
NCZ
42   44    1
SMALL
USER_CHARGES


@<TRIPOS>ATOM
      1 C1         -0.2105   10.8813    2.0278 C.ar      1 NCZ        -0.1709 
      2 C6          0.1503   10.4181    0.7299 C.ar      1 NCZ         0.0726 
      3 C5          0.5035   11.3992   -0.2550 C.ar      1 NCZ        -0.0959 
      4 C7          0.9034   10.9538   -1.5429 C.ar      1 NCZ        -0.0424 
      5 C8          0.9320    9.6031   -1.8512 C.ar      1 NCZ        -0.2379 
      6 C9          0.5527    8.6501   -0.9191 C.ar      1 NCZ         0.2611 
      7 C10         0.1659    9.0225    0.3768 C.ar      1 NCZ        -0.3060 
      8 C11        -0.2282    7.9553    1.3419 C.2       1 NCZ         0.6421 
      9 O3         -1.4017    7.6123    1.4666 O.2       1 NCZ        -0.4040 
     10 O4          0.8456    7.4772    2.0495 O.3       1 NCZ        -0.3226 
     11 C12         0.8310    6.5175    3.1352 C.3       1 NCZ         0.0648 
     12 C13        -0.2601    5.4251    3.2145 C.3       1 NCZ         0.2089 
     13 C14        -0.6825    5.4878    4.6620 C.2       1 NCZ        -0.2040 
     14 C15        -0.1326    6.5075    5.3285 C.2       1 NCZ        -0.2040 
     15 C16         0.9357    7.1838    4.5252 C.3       1 NCZ         0.2089 
     16 O6          2.1580    6.9418    5.1818 O.3       1 NCZ        -0.6331 
     17 O5          0.1579    4.1411    2.8213 O.3       1 NCZ        -0.6331 
     18 O2          0.5579    7.3417   -1.3245 O.3       1 NCZ        -0.5507 
     19 C4          0.4403   12.7859    0.0881 C.ar      1 NCZ        -0.0224 
     20 C3          0.0682   13.1742    1.3724 C.ar      1 NCZ        -0.1967 
     21 C2         -0.2515   12.2317    2.3507 C.ar      1 NCZ         0.1767 
     22 O1         -0.6382   12.5427    3.6405 O.3       1 NCZ        -0.3596 
     23 C17        -0.6552   13.9063    4.0498 C.3       1 NCZ         0.1374 
     24 C18         0.7550   13.8551   -0.9508 C.3       1 NCZ        -0.1312 
     25 H1         -0.4618   10.1694    2.7963 H         1 NCZ         0.1606 
     26 H7          1.1901   11.6639   -2.3033 H         1 NCZ         0.1348 
     27 H8          1.2430    9.2836   -2.8359 H         1 NCZ         0.1341 
     28 H12         1.7787    6.0070    2.9553 H         1 NCZ         0.1032 
     29 H13        -1.1484    5.6374    2.6307 H         1 NCZ         0.0836 
     30 H14        -1.4422    4.8421    5.0650 H         1 NCZ         0.1528 
     31 H15        -0.3518    6.7934    6.3468 H         1 NCZ         0.1528 
     32 H16         0.7393    8.2548    4.4533 H         1 NCZ         0.0836 
     33 H6          2.1733    6.0008    5.4148 H         1 NCZ         0.4243 
     34 H5          1.0437    3.9717    3.1611 H         1 NCZ         0.4243 
     35 H2          1.4699    7.0198   -1.5154 H         1 NCZ         0.4084 
     36 H3          0.0213   14.2285    1.5971 H         1 NCZ         0.1346 
     37 H171       -0.9565   13.9630    5.0956 H         1 NCZ         0.0417 
     38 H172       -1.3709   14.4914    3.4703 H         1 NCZ         0.0417 
     39 H173        0.3324   14.3628    3.9670 H         1 NCZ         0.0417 
     40 H181        0.7089   14.8601   -0.5304 H         1 NCZ         0.0733 
     41 H182        0.0397   13.8066   -1.7722 H         1 NCZ         0.0733 
     42 H183        1.7550   13.7156   -1.3572 H         1 NCZ         0.0733 
@<TRIPOS>BOND
     1    1    2 ar   
     2    1   21 ar   
     3    1   25 1    
     4    2    3 ar   
     5    2    7 ar   
     6    3    4 ar   
     7    3   19 ar   
     8    4    5 ar   
     9    4   26 1    
    10    5    6 ar   
    11    5   27 1    
    12    6    7 ar   
    13    6   18 1    
    14    7    8 1    
    15    8    9 2    
    16    8   10 1    
    17   10   11 1    
    18   11   12 1    
    19   11   15 1    
    20   11   28 1    
    21   12   13 1    
    22   12   17 1    
    23   12   29 1    
    24   13   14 2    
    25   13   30 1    
    26   14   15 1    
    27   14   31 1    
    28   15   16 1    
    29   15   32 1    
    30   16   33 1    
    31   17   34 1    
    32   18   35 1    
    33   19   20 ar   
    34   19   24 1    
    35   20   21 ar   
    36   20   36 1    
    37   21   22 1    
    38   22   23 1    
    39   23   37 1    
    40   23   38 1    
    41   23   39 1    
    42   24   40 1    
    43   24   41 1    
    44   24   42 1    
@<TRIPOS>SUBSTRUCTURE
     1 NCZ         1 GROUP             0       ****    0 ROOT    
@<TRIPOS>MOLECULE
NCZ
42   44    1
SMALL
USER_CHARGES


@<TRIPOS>ATOM
      1 C1          0.0570   11.6729    0.3650 C.ar      1 NCZ        -0.1709 
      2 C6          0.3098   10.8665   -0.7855 C.ar      1 NCZ         0.0726 
      3 C5          0.8955   11.4984   -1.9326 C.ar      1 NCZ        -0.0959 
      4 C7          1.2024   10.7006   -3.0657 C.ar      1 NCZ        -0.0424 
      5 C8          0.9451    9.3398   -3.0664 C.ar      1 NCZ        -0.2379 
      6 C9          0.3581    8.7196   -1.9736 C.ar      1 NCZ         0.2611 
      7 C10         0.0169    9.4572   -0.8309 C.ar      1 NCZ        -0.3060 
      8 C11        -0.6448    8.7518    0.3012 C.2       1 NCZ         0.6421 
      9 O3         -1.7915    9.0115    0.6641 O.2       1 NCZ        -0.4040 
     10 O4          0.1812    7.8759    0.9219 O.3       1 NCZ        -0.3226 
     11 C12        -0.2707    7.0873    2.0263 C.3       1 NCZ         0.0648 
     12 C13         0.8994    6.5627    2.8564 C.3       1 NCZ         0.2089 
     13 C14         0.4533    5.1558    3.1826 C.2       1 NCZ        -0.2040 
     14 C15        -0.6411    4.7864    2.4963 C.2       1 NCZ        -0.2040 
     15 C16        -1.1389    5.8944    1.5999 C.3       1 NCZ         0.2089 
     16 O6         -2.5143    6.1436    1.7970 O.3       1 NCZ        -0.6331 
     17 O5          1.1140    7.3204    4.0288 O.3       1 NCZ        -0.6331 
     18 O2          0.1580    7.3630   -2.0528 O.3       1 NCZ        -0.5507 
     19 C4          1.1586   12.9023   -1.8971 C.ar      1 NCZ        -0.0224 
     20 C3          0.8834   13.6357   -0.7470 C.ar      1 NCZ        -0.1967 
     21 C2          0.3570   13.0385    0.3886 C.ar      1 NCZ         0.1767 
     22 O1          0.1622   13.8611    1.4802 O.3       1 NCZ        -0.3596 
     23 C17        -0.1016   13.2758    2.7499 C.3       1 NCZ         0.1374 
     24 C18         1.7583   13.6087   -3.1065 C.3       1 NCZ        -0.1312 
     25 H1         -0.3655   11.2070    1.2397 H         1 NCZ         0.1606 
     26 H7          1.6602   11.1411   -3.9381 H         1 NCZ         0.1348 
     27 H8          1.2195    8.7458   -3.9265 H         1 NCZ         0.1341 
     28 H12        -0.8538    7.7414    2.6672 H         1 NCZ         0.1032 
     29 H13         1.8188    6.5417    2.2672 H         1 NCZ         0.0836 
     30 H14         1.0156    4.5413    3.8669 H         1 NCZ         0.1528 
     31 H15        -1.1184    3.8173    2.5314 H         1 NCZ         0.1528 
     32 H16        -0.9487    5.6293    0.5575 H         1 NCZ         0.0836 
     33 H6         -2.8193    5.5830    2.5267 H         1 NCZ         0.4243 
     34 H5          1.7585    6.8516    4.5654 H         1 NCZ         0.4243 
     35 H2          1.0366    6.9423   -2.1339 H         1 NCZ         0.4084 
     36 H3          1.0998   14.6936   -0.7204 H         1 NCZ         0.1346 
     37 H171       -0.1796   14.0642    3.4982 H         1 NCZ         0.0417 
     38 H172        0.7046   12.6069    3.0560 H         1 NCZ         0.0417 
     39 H173       -1.0422   12.7263    2.7555 H         1 NCZ         0.0417 
     40 H181        1.8783   14.6789   -2.9344 H         1 NCZ         0.0733 
     41 H182        1.1169   13.4854   -3.9795 H         1 NCZ         0.0733 
     42 H183        2.7427   13.2002   -3.3368 H         1 NCZ         0.0733 
@<TRIPOS>BOND
     1    1    2 ar   
     2    1   21 ar   
     3    1   25 1    
     4    2    3 ar   
     5    2    7 ar   
     6    3    4 ar   
     7    3   19 ar   
     8    4    5 ar   
     9    4   26 1    
    10    5    6 ar   
    11    5   27 1    
    12    6    7 ar   
    13    6   18 1    
    14    7    8 1    
    15    8    9 2    
    16    8   10 1    
    17   10   11 1    
    18   11   12 1    
    19   11   15 1    
    20   11   28 1    
    21   12   13 1    
    22   12   17 1    
    23   12   29 1    
    24   13   14 2    
    25   13   30 1    
    26   14   15 1    
    27   14   31 1    
    28   15   16 1    
    29   15   32 1    
    30   16   33 1    
    31   17   34 1    
    32   18   35 1    
    33   19   20 ar   
    34   19   24 1    
    35   20   21 ar   
    36   20   36 1    
    37   21   22 1    
    38   22   23 1    
    39   23   37 1    
    40   23   38 1    
    41   23   39 1    
    42   24   40 1    
    43   24   41 1    
    44   24   42 1    
@<TRIPOS>SUBSTRUCTURE
     1 NCZ         1 GROUP             0       ****    0 ROOT    
@<TRIPOS>MOLECULE
NCZ
42   44    1
SMALL
USER_CHARGES


@<TRIPOS>ATOM
      1 C1         -0.0972   10.7326    2.0839 C.ar      1 NCZ        -0.1709 
      2 C6          0.0724   10.2921    0.7394 C.ar      1 NCZ         0.0726 
      3 C5          0.2840   11.2872   -0.2706 C.ar      1 NCZ        -0.0959 
      4 C7          0.4886   10.8581   -1.6087 C.ar      1 NCZ        -0.0424 
      5 C8          0.4549    9.5110   -1.9398 C.ar      1 NCZ        -0.2379 
      6 C9          0.2092    8.5442   -0.9777 C.ar      1 NCZ         0.2611 
      7 C10         0.0276    8.9017    0.3665 C.ar      1 NCZ        -0.3060 
      8 C11        -0.2604    7.8315    1.3624 C.2       1 NCZ         0.6421 
      9 O3         -1.3873    7.3491    1.4688 O.2       1 NCZ        -0.4040 
     10 O4          0.8482    7.5057    2.1011 O.3       1 NCZ        -0.3226 
     11 C12         0.9228    6.5759    3.2063 C.3       1 NCZ         0.0648 
     12 C13        -0.0605    5.3867    3.2889 C.3       1 NCZ         0.2089 
     13 C14        -0.6422    5.5218    4.6741 C.2       1 NCZ        -0.2040 
     14 C15        -0.1460    6.5638    5.3495 C.2       1 NCZ        -0.2040 
     15 C16         0.9360    7.2757    4.5848 C.3       1 NCZ         0.2089 
     16 O6          2.1533    7.1552    5.2974 O.3       1 NCZ        -0.6331 
     17 O5          0.5435    4.1419    3.0651 O.3       1 NCZ        -0.6331 
     18 O2          0.1581    7.2393   -1.4028 O.3       1 NCZ        -0.5507 
     19 C4          0.2752   12.6671    0.0993 C.ar      1 NCZ        -0.0224 
     20 C3          0.0781   13.0343    1.4285 C.ar      1 NCZ        -0.1967 
     21 C2         -0.0950   12.0865    2.4265 C.ar      1 NCZ         0.1767 
     22 O1         -0.2654   12.5575    3.7151 O.3       1 NCZ        -0.3596 
     23 C17        -0.2076   11.6428    4.8044 C.3       1 NCZ         0.1374 
     24 C18         0.4707   13.7520   -0.9518 C.3       1 NCZ        -0.1312 
     25 H1         -0.2346    9.9932    2.8526 H         1 NCZ         0.1606 
     26 H7          0.6678   11.5810   -2.3910 H         1 NCZ         0.1348 
     27 H8          0.6173    9.2123   -2.9650 H         1 NCZ         0.1341 
     28 H12         1.9195    6.1648    3.0411 H         1 NCZ         0.1032 
     29 H13        -0.8837    5.4238    2.5858 H         1 NCZ         0.0836 
     30 H14        -1.4318    4.8813    5.0308 H         1 NCZ         0.1528 
     31 H15        -0.4509    6.8805    6.3362 H         1 NCZ         0.1528 
     32 H16         0.6768    8.3298    4.4724 H         1 NCZ         0.0836 
     33 H6          2.2721    6.2189    5.4970 H         1 NCZ         0.4243 
     34 H5          1.3764    4.0953    3.5464 H         1 NCZ         0.4243 
     35 H2          1.0604    6.9416   -1.6259 H         1 NCZ         0.4084 
     36 H3          0.0639   14.0798    1.7013 H         1 NCZ         0.1346 
     37 H171       -0.2641   12.1949    5.7429 H         1 NCZ         0.0417 
     38 H172        0.7291   11.0833    4.8088 H         1 NCZ         0.0417 
     39 H173       -1.0416   10.9405    4.7881 H         1 NCZ         0.0417 
     40 H181        0.4395   14.7518   -0.5165 H         1 NCZ         0.0733 
     41 H182       -0.3161   13.6957   -1.7043 H         1 NCZ         0.0733 
     42 H183        1.4347   13.6372   -1.4466 H         1 NCZ         0.0733 
@<TRIPOS>BOND
     1    1    2 ar   
     2    1   21 ar   
     3    1   25 1    
     4    2    3 ar   
     5    2    7 ar   
     6    3    4 ar   
     7    3   19 ar   
     8    4    5 ar   
     9    4   26 1    
    10    5    6 ar   
    11    5   27 1    
    12    6    7 ar   
    13    6   18 1    
    14    7    8 1    
    15    8    9 2    
    16    8   10 1    
    17   10   11 1    
    18   11   12 1    
    19   11   15 1    
    20   11   28 1    
    21   12   13 1    
    22   12   17 1    
    23   12   29 1    
    24   13   14 2    
    25   13   30 1    
    26   14   15 1    
    27   14   31 1    
    28   15   16 1    
    29   15   32 1    
    30   16   33 1    
    31   17   34 1    
    32   18   35 1    
    33   19   20 ar   
    34   19   24 1    
    35   20   21 ar   
    36   20   36 1    
    37   21   22 1    
    38   22   23 1    
    39   23   37 1    
    40   23   38 1    
    41   23   39 1    
    42   24   40 1    
    43   24   41 1    
    44   24   42 1    
@<TRIPOS>SUBSTRUCTURE
     1 NCZ         1 GROUP             0       ****    0 ROOT    
@<TRIPOS>MOLECULE
NCZ
42   44    1
SMALL
USER_CHARGES


@<TRIPOS>ATOM
      1 C1          0.5555   10.3896   -0.5453 C.ar      1 NCZ        -0.1709 
      2 C6          0.2441   10.9974    0.7115 C.ar      1 NCZ         0.0726 
      3 C5          0.0599   12.4212    0.7325 C.ar      1 NCZ        -0.0959 
      4 C7         -0.1525   13.0617    1.9800 C.ar      1 NCZ        -0.0424 
      5 C8         -0.1081   12.3437    3.1631 C.ar      1 NCZ        -0.2379 
      6 C9          0.0763   10.9707    3.1585 C.ar      1 NCZ         0.2611 
      7 C10         0.1577   10.2543    1.9496 C.ar      1 NCZ        -0.3060 
      8 C11         0.2619    8.7566    1.9996 C.2       1 NCZ         0.6421 
      9 O3          0.9578    8.1592    2.8264 O.2       1 NCZ        -0.4040 
     10 O4         -0.5815    8.1429    1.1353 O.3       1 NCZ        -0.3226 
     11 C12        -0.4735    6.7365    0.9120 C.3       1 NCZ         0.0648 
     12 C13        -1.0883    6.3605   -0.4266 C.3       1 NCZ         0.2089 
     13 C14        -1.4404    4.9062   -0.2131 C.2       1 NCZ        -0.2040 
     14 C15        -1.4937    4.6188    1.0999 C.2       1 NCZ        -0.2040 
     15 C16        -1.1771    5.8376    1.9438 C.3       1 NCZ         0.2089 
     16 O6         -0.3861    5.5061    3.0637 O.3       1 NCZ        -0.6331 
     17 O5         -0.2420    6.5751   -1.5393 O.3       1 NCZ        -0.6331 
     18 O2          0.1577   10.3590    4.3858 O.3       1 NCZ        -0.5507 
     19 C4          0.1218   13.1557   -0.4928 C.ar      1 NCZ        -0.0224 
     20 C3          0.4157   12.5012   -1.6840 C.ar      1 NCZ        -0.1967 
     21 C2          0.6667   11.1386   -1.7216 C.ar      1 NCZ         0.1767 
     22 O1          1.0247   10.6163   -2.9484 O.3       1 NCZ        -0.3596 
     23 C17         1.6891    9.3566   -2.9857 C.3       1 NCZ         0.1374 
     24 C18        -0.0811   14.6660   -0.5065 C.3       1 NCZ        -0.1312 
     25 H1          0.7479    9.3289   -0.5852 H         1 NCZ         0.1606 
     26 H7         -0.3010   14.1303    2.0271 H         1 NCZ         0.1348 
     27 H8         -0.2090   12.8663    4.1029 H         1 NCZ         0.1341 
     28 H12         0.5931    6.5419    0.8694 H         1 NCZ         0.1032 
     29 H13        -2.0184    6.9117   -0.5335 H         1 NCZ         0.0836 
     30 H14        -1.6529    4.2312   -1.0309 H         1 NCZ         0.1528 
     31 H15        -1.7599    3.6666    1.5348 H         1 NCZ         0.1528 
     32 H16        -2.1099    6.2974    2.2752 H         1 NCZ         0.0836 
     33 H6         -0.9254    5.0014    3.6783 H         1 NCZ         0.4243 
     34 H5          0.6693    6.3115   -1.3314 H         1 NCZ         0.4243 
     35 H2          0.4290    9.4383    4.3053 H         1 NCZ         0.4084 
     36 H3          0.4914   13.0644   -2.6027 H         1 NCZ         0.1346 
     37 H171        2.0455    9.1611   -3.9967 H         1 NCZ         0.0417 
     38 H172        1.0153    8.5444   -2.7171 H         1 NCZ         0.0417 
     39 H173        2.5569    9.3419   -2.3232 H         1 NCZ         0.0417 
     40 H181       -0.0594   15.0702   -1.5192 H         1 NCZ         0.0733 
     41 H182        0.7068   15.1595    0.0633 H         1 NCZ         0.0733 
     42 H183       -1.0428   14.9314   -0.0696 H         1 NCZ         0.0733 
@<TRIPOS>BOND
     1    1    2 ar   
     2    1   21 ar   
     3    1   25 1    
     4    2    3 ar   
     5    2    7 ar   
     6    3    4 ar   
     7    3   19 ar   
     8    4    5 ar   
     9    4   26 1    
    10    5    6 ar   
    11    5   27 1    
    12    6    7 ar   
    13    6   18 1    
    14    7    8 1    
    15    8    9 2    
    16    8   10 1    
    17   10   11 1    
    18   11   12 1    
    19   11   15 1    
    20   11   28 1    
    21   12   13 1    
    22   12   17 1    
    23   12   29 1    
    24   13   14 2    
    25   13   30 1    
    26   14   15 1    
    27   14   31 1    
    28   15   16 1    
    29   15   32 1    
    30   16   33 1    
    31   17   34 1    
    32   18   35 1    
    33   19   20 ar   
    34   19   24 1    
    35   20   21 ar   
    36   20   36 1    
    37   21   22 1    
    38   22   23 1    
    39   23   37 1    
    40   23   38 1    
    41   23   39 1    
    42   24   40 1    
    43   24   41 1    
    44   24   42 1    
@<TRIPOS>SUBSTRUCTURE
     1 NCZ         1 GROUP             0       ****    0 ROOT    
@<TRIPOS>MOLECULE
NCZ
42   44    1
SMALL
USER_CHARGES


@<TRIPOS>ATOM
      1 C1          0.0712   11.7685    0.3000 C.ar      1 NCZ        -0.1709 
      2 C6          0.3606   10.9254   -0.8137 C.ar      1 NCZ         0.0726 
      3 C5          0.9616   11.5274   -1.9683 C.ar      1 NCZ        -0.0959 
      4 C7          1.2831   10.6993   -3.0751 C.ar      1 NCZ        -0.0424 
      5 C8          1.0093    9.3417   -3.0493 C.ar      1 NCZ        -0.2379 
      6 C9          0.4059    8.7494   -1.9498 C.ar      1 NCZ         0.2611 
      7 C10         0.0704    9.5142   -0.8228 C.ar      1 NCZ        -0.3060 
      8 C11        -0.6422    8.8519    0.3043 C.2       1 NCZ         0.6421 
      9 O3         -1.7565    9.2255    0.6665 O.2       1 NCZ        -0.4040 
     10 O4          0.0664    7.8464    0.9025 O.3       1 NCZ        -0.3226 
     11 C12        -0.5623    7.0093    1.8863 C.3       1 NCZ         0.0648 
     12 C13         0.4062    6.1512    2.7138 C.3       1 NCZ         0.2089 
     13 C14        -0.2417    4.7790    2.6664 C.2       1 NCZ        -0.2040 
     14 C15        -1.3207    4.7424    1.8664 C.2       1 NCZ        -0.2040 
     15 C16        -1.6057    6.0826    1.2339 C.3       1 NCZ         0.2089 
     16 O6         -2.9257    6.5414    1.4665 O.3       1 NCZ        -0.6331 
     17 O5          0.5598    6.6026    4.0446 O.3       1 NCZ        -0.6331 
     18 O2          0.1580    7.3985   -2.0209 O.3       1 NCZ        -0.5507 
     19 C4          1.2159   12.9342   -1.9705 C.ar      1 NCZ        -0.0224 
     20 C3          0.9024   13.7049   -0.8532 C.ar      1 NCZ        -0.1967 
     21 C2          0.3357   13.1317    0.2868 C.ar      1 NCZ         0.1767 
     22 O1          0.0072   13.8273    1.4332 O.3       1 NCZ        -0.3596 
     23 C17         0.1526   15.2427    1.4548 C.3       1 NCZ         0.1374 
     24 C18         1.8282   13.6056   -3.1949 C.3       1 NCZ        -0.1312 
     25 H1         -0.3689   11.3518    1.1927 H         1 NCZ         0.1606 
     26 H7          1.7510   11.1169   -3.9536 H         1 NCZ         0.1348 
     27 H8          1.2792    8.7292   -3.8976 H         1 NCZ         0.1341 
     28 H12        -1.0420    7.6857    2.5839 H         1 NCZ         0.1032 
     29 H13         1.3987    6.1420    2.2666 H         1 NCZ         0.0836 
     30 H14         0.1711    3.9392    3.2059 H         1 NCZ         0.1528 
     31 H15        -1.9264    3.8728    1.6588 H         1 NCZ         0.1528 
     32 H16        -1.4274    5.9970    0.1597 H         1 NCZ         0.0836 
     33 H6         -3.5622    5.9108    1.1035 H         1 NCZ         0.4243 
     34 H5          1.1159    5.9716    4.5139 H         1 NCZ         0.4243 
     35 H2          1.0162    6.9432   -2.1332 H         1 NCZ         0.4084 
     36 H3          1.1118   14.7629   -0.8823 H         1 NCZ         0.1346 
     37 H171       -0.1875   15.6230    2.4180 H         1 NCZ         0.0417 
     38 H172       -0.4543   15.7189    0.6827 H         1 NCZ         0.0417 
     39 H173        1.1949   15.5408    1.3313 H         1 NCZ         0.0417 
     40 H181        1.9606   14.6783   -3.0494 H         1 NCZ         0.0733 
     41 H182        1.1872   13.4686   -4.0662 H         1 NCZ         0.0733 
     42 H183        2.8087   13.1820   -3.4157 H         1 NCZ         0.0733 
@<TRIPOS>BOND
     1    1    2 ar   
     2    1   21 ar   
     3    1   25 1    
     4    2    3 ar   
     5    2    7 ar   
     6    3    4 ar   
     7    3   19 ar   
     8    4    5 ar   
     9    4   26 1    
    10    5    6 ar   
    11    5   27 1    
    12    6    7 ar   
    13    6   18 1    
    14    7    8 1    
    15    8    9 2    
    16    8   10 1    
    17   10   11 1    
    18   11   12 1    
    19   11   15 1    
    20   11   28 1    
    21   12   13 1    
    22   12   17 1    
    23   12   29 1    
    24   13   14 2    
    25   13   30 1    
    26   14   15 1    
    27   14   31 1    
    28   15   16 1    
    29   15   32 1    
    30   16   33 1    
    31   17   34 1    
    32   18   35 1    
    33   19   20 ar   
    34   19   24 1    
    35   20   21 ar   
    36   20   36 1    
    37   21   22 1    
    38   22   23 1    
    39   23   37 1    
    40   23   38 1    
    41   23   39 1    
    42   24   40 1    
    43   24   41 1    
    44   24   42 1    
@<TRIPOS>SUBSTRUCTURE
     1 NCZ         1 GROUP             0       ****    0 ROOT    
@<TRIPOS>MOLECULE
NCZ
42   44    1
SMALL
USER_CHARGES


@<TRIPOS>ATOM
      1 C1          0.4011   10.8434   -0.4309 C.ar      1 NCZ        -0.1709 
      2 C6          0.2892    9.8784   -1.4792 C.ar      1 NCZ         0.0726 
      3 C5          0.7445   10.2610   -2.7855 C.ar      1 NCZ        -0.0959 
      4 C7          0.6472    9.3187   -3.8416 C.ar      1 NCZ        -0.0424 
      5 C8          0.1579    8.0424   -3.6158 C.ar      1 NCZ        -0.2379 
      6 C9         -0.2418    7.6433   -2.3507 C.ar      1 NCZ         0.2611 
      7 C10        -0.2405    8.5500   -1.2731 C.ar      1 NCZ        -0.3060 
      8 C11        -0.7989    8.1198    0.0491 C.2       1 NCZ         0.6421 
      9 O3         -1.6285    8.7883    0.6670 O.2       1 NCZ        -0.4040 
     10 O4         -0.2852    6.9539    0.4847 O.3       1 NCZ        -0.3226 
     11 C12        -0.7098    6.3223    1.6948 C.3       1 NCZ         0.0648 
     12 C13         0.4227    6.3829    2.7268 C.3       1 NCZ         0.2089 
     13 C14         0.5579    4.9426    3.1510 C.2       1 NCZ        -0.2040 
     14 C15        -0.2421    4.1138    2.4647 C.2       1 NCZ        -0.2040 
     15 C16        -1.0245    4.8451    1.4092 C.3       1 NCZ         0.2089 
     16 O6         -2.3893    4.5199    1.4666 O.3       1 NCZ        -0.6331 
     17 O5          0.1579    7.2384    3.8190 O.3       1 NCZ        -0.6331 
     18 O2         -0.6419    6.3352   -2.2201 O.3       1 NCZ        -0.5507 
     19 C4          1.2840   11.5707   -2.9844 C.ar      1 NCZ        -0.0224 
     20 C3          1.3496   12.4677   -1.9229 C.ar      1 NCZ        -0.1967 
     21 C2          0.9209   12.1228   -0.6506 C.ar      1 NCZ         0.1767 
     22 O1          1.0494   13.0937    0.3240 O.3       1 NCZ        -0.3596 
     23 C17         0.6267   12.8081    1.6529 C.3       1 NCZ         0.1374 
     24 C18         1.8078   11.9970   -4.3507 C.3       1 NCZ        -0.1312 
     25 H1          0.0877   10.5705    0.5621 H         1 NCZ         0.1606 
     26 H7          0.9808    9.5766   -4.8349 H         1 NCZ         0.1348 
     27 H8          0.1338    7.3378   -4.4329 H         1 NCZ         0.1341 
     28 H12        -1.6048    6.8106    2.0853 H         1 NCZ         0.1032 
     29 H13         1.3621    6.6948    2.2646 H         1 NCZ         0.0836 
     30 H14         1.2960    4.6340    3.8666 H         1 NCZ         0.1528 
     31 H15        -0.2766    3.0382    2.5618 H         1 NCZ         0.1528 
     32 H16        -0.6423    4.5511    0.4288 H         1 NCZ         0.0836 
     33 H6         -2.6838    4.5573    2.3918 H         1 NCZ         0.4243 
     34 H5         -0.5281    6.8352    4.3581 H         1 NCZ         0.4243 
     35 H2          0.0411    5.7335   -2.5331 H         1 NCZ         0.4084 
     36 H3          1.7522   13.4571   -2.0808 H         1 NCZ         0.1346 
     37 H171        0.7986   13.6830    2.2796 H         1 NCZ         0.0417 
     38 H172        1.1910   11.9792    2.0832 H         1 NCZ         0.0417 
     39 H173       -0.4396   12.5792    1.6940 H         1 NCZ         0.0417 
     40 H181        2.2073   13.0121   -4.3360 H         1 NCZ         0.0733 
     41 H182        1.0113   11.9646   -5.0945 H         1 NCZ         0.0733 
     42 H183        2.6134   11.3358   -4.6715 H         1 NCZ         0.0733 
@<TRIPOS>BOND
     1    1    2 ar   
     2    1   21 ar   
     3    1   25 1    
     4    2    3 ar   
     5    2    7 ar   
     6    3    4 ar   
     7    3   19 ar   
     8    4    5 ar   
     9    4   26 1    
    10    5    6 ar   
    11    5   27 1    
    12    6    7 ar   
    13    6   18 1    
    14    7    8 1    
    15    8    9 2    
    16    8   10 1    
    17   10   11 1    
    18   11   12 1    
    19   11   15 1    
    20   11   28 1    
    21   12   13 1    
    22   12   17 1    
    23   12   29 1    
    24   13   14 2    
    25   13   30 1    
    26   14   15 1    
    27   14   31 1    
    28   15   16 1    
    29   15   32 1    
    30   16   33 1    
    31   17   34 1    
    32   18   35 1    
    33   19   20 ar   
    34   19   24 1    
    35   20   21 ar   
    36   20   36 1    
    37   21   22 1    
    38   22   23 1    
    39   23   37 1    
    40   23   38 1    
    41   23   39 1    
    42   24   40 1    
    43   24   41 1    
    44   24   42 1    
@<TRIPOS>SUBSTRUCTURE
     1 NCZ         1 GROUP             0       ****    0 ROOT    
@<TRIPOS>MOLECULE
NCZ
42   44    1
SMALL
USER_CHARGES


@<TRIPOS>ATOM
      1 C1         -0.0424    8.6528   -3.0730 C.ar      1 NCZ        -0.1709 
      2 C6          0.3015    9.7236   -2.1866 C.ar      1 NCZ         0.0726 
      3 C5          1.0613   10.8077   -2.7444 C.ar      1 NCZ        -0.0959 
      4 C7          1.3580   11.9242   -1.9233 C.ar      1 NCZ        -0.0424 
      5 C8          0.9505   11.9712   -0.6033 C.ar      1 NCZ        -0.2379 
      6 C9          0.2309   10.9310   -0.0432 C.ar      1 NCZ         0.2611 
      7 C10        -0.0956    9.7801   -0.7901 C.ar      1 NCZ        -0.3060 
      8 C11        -0.9540    8.7334   -0.1334 C.2       1 NCZ         0.6421 
      9 O3         -1.8423    9.0156    0.6667 O.2       1 NCZ        -0.4040 
     10 O4         -0.6444    7.4590   -0.4663 O.3       1 NCZ        -0.3226 
     11 C12        -1.5015    6.3496   -0.1334 C.3       1 NCZ         0.0648 
     12 C13        -1.5648    6.0564    1.3722 C.3       1 NCZ         0.2089 
     13 C14        -1.2303    4.5940    1.4672 C.2       1 NCZ        -0.2040 
     14 C15        -0.9327    4.0809    0.2651 C.2       1 NCZ        -0.2040 
     15 C16        -1.0244    5.0948   -0.8567 C.3       1 NCZ         0.2089 
     16 O6         -1.8420    4.6293   -1.9022 O.3       1 NCZ        -0.6331 
     17 O5         -2.8495    6.3266    1.8664 O.3       1 NCZ        -0.6331 
     18 O2         -0.1451   11.0963    1.2685 O.3       1 NCZ        -0.5507 
     19 C4          1.4882   10.7451   -4.1090 C.ar      1 NCZ        -0.0224 
     20 C3          1.1415    9.6555   -4.9025 C.ar      1 NCZ        -0.1967 
     21 C2          0.3757    8.6057   -4.3970 C.ar      1 NCZ         0.1767 
     22 O1         -0.0157    7.4996   -5.1297 O.3       1 NCZ        -0.3596 
     23 C17         0.5085    7.3155   -6.4406 C.3       1 NCZ         0.1374 
     24 C18         2.3254   11.8679   -4.7132 C.3       1 NCZ        -0.1312 
     25 H1         -0.6371    7.8214   -2.7400 H         1 NCZ         0.1606 
     26 H7          1.9163   12.7582   -2.3198 H         1 NCZ         0.1348 
     27 H8          1.1929   12.8368   -0.0043 H         1 NCZ         0.1341 
     28 H12        -2.5030    6.5578   -0.5046 H         1 NCZ         0.1032 
     29 H13        -0.8155    6.6287    1.9225 H         1 NCZ         0.0836 
     30 H14        -1.2067    4.0681    2.4109 H         1 NCZ         0.1528 
     31 H15        -0.6164    3.0662    0.0980 H         1 NCZ         0.1528 
     32 H16        -0.0814    5.3419   -1.3356 H         1 NCZ         0.0836 
     33 H6         -1.3331    3.9801   -2.4043 H         1 NCZ         0.4243 
     34 H5         -3.0393    5.6987    2.5797 H         1 NCZ         0.4243 
     35 H2         -0.7459   10.3958    1.5405 H         1 NCZ         0.4084 
     36 H3          1.4753    9.6378   -5.9277 H         1 NCZ         0.1346 
     37 H171        0.1374    6.3754   -6.8486 H         1 NCZ         0.0417 
     38 H172        1.5988    7.2636   -6.4316 H         1 NCZ         0.0417 
     39 H173        0.1907    8.1123   -7.1147 H         1 NCZ         0.0417 
     40 H181        2.5905   11.6684   -5.7519 H         1 NCZ         0.0733 
     41 H182        3.2550   11.9956   -4.1574 H         1 NCZ         0.0733 
     42 H183        1.7763   12.8094   -4.6903 H         1 NCZ         0.0733 
@<TRIPOS>BOND
     1    1    2 ar   
     2    1   21 ar   
     3    1   25 1    
     4    2    3 ar   
     5    2    7 ar   
     6    3    4 ar   
     7    3   19 ar   
     8    4    5 ar   
     9    4   26 1    
    10    5    6 ar   
    11    5   27 1    
    12    6    7 ar   
    13    6   18 1    
    14    7    8 1    
    15    8    9 2    
    16    8   10 1    
    17   10   11 1    
    18   11   12 1    
    19   11   15 1    
    20   11   28 1    
    21   12   13 1    
    22   12   17 1    
    23   12   29 1    
    24   13   14 2    
    25   13   30 1    
    26   14   15 1    
    27   14   31 1    
    28   15   16 1    
    29   15   32 1    
    30   16   33 1    
    31   17   34 1    
    32   18   35 1    
    33   19   20 ar   
    34   19   24 1    
    35   20   21 ar   
    36   20   36 1    
    37   21   22 1    
    38   22   23 1    
    39   23   37 1    
    40   23   38 1    
    41   23   39 1    
    42   24   40 1    
    43   24   41 1    
    44   24   42 1    
@<TRIPOS>SUBSTRUCTURE
     1 NCZ         1 GROUP             0       ****    0 ROOT    
@<TRIPOS>MOLECULE
NCZ
42   44    1
SMALL
USER_CHARGES


@<TRIPOS>ATOM
      1 C1          0.7383   10.6492   -0.2478 C.ar      1 NCZ        -0.1709 
      2 C6          0.3281   11.2307    0.9953 C.ar      1 NCZ         0.0726 
      3 C5          0.1160   12.6513    1.0193 C.ar      1 NCZ        -0.0959 
      4 C7         -0.2014   13.2732    2.2522 C.ar      1 NCZ        -0.0424 
      5 C8         -0.2628   12.5403    3.4234 C.ar      1 NCZ        -0.2379 
      6 C9         -0.0831   11.1668    3.4167 C.ar      1 NCZ         0.2611 
      7 C10         0.1555   10.4676    2.2162 C.ar      1 NCZ        -0.3060 
      8 C11         0.3152    8.9687    2.2634 C.2       1 NCZ         0.6421 
      9 O3          0.9570    8.3778    3.1351 O.2       1 NCZ        -0.4040 
     10 O4         -0.4018    8.3395    1.3011 O.3       1 NCZ        -0.3226 
     11 C12        -0.2389    6.9392    1.0541 C.3       1 NCZ         0.0648 
     12 C13        -0.7582    6.6085   -0.3413 C.3       1 NCZ         0.2089 
     13 C14        -1.1885    5.1660   -0.1935 C.2       1 NCZ        -0.2040 
     14 C15        -1.3491    4.8455    1.1036 C.2       1 NCZ        -0.2040 
     15 C16        -1.0066    6.0113    2.0115 C.3       1 NCZ         0.2089 
     16 O6         -0.2424    5.5977    3.1239 O.3       1 NCZ        -0.6331 
     17 O5          0.1577    6.8299   -1.3954 O.3       1 NCZ        -0.6331 
     18 O2         -0.1896   10.5419    4.6352 O.3       1 NCZ        -0.5507 
     19 C4          0.2507   13.4052   -0.1878 C.ar      1 NCZ        -0.0224 
     20 C3          0.6506   12.7766   -1.3608 C.ar      1 NCZ        -0.1967 
     21 C2          0.9222   11.4188   -1.4024 C.ar      1 NCZ         0.1767 
     22 O1          1.3734   10.9322   -2.6136 O.3       1 NCZ        -0.3596 
     23 C17         1.8237    9.5834   -2.7021 C.3       1 NCZ         0.1374 
     24 C18        -0.0110   14.9071   -0.2027 C.3       1 NCZ        -0.1312 
     25 H1          0.9487    9.5927   -0.2922 H         1 NCZ         0.1606 
     26 H7         -0.3683   14.3392    2.2980 H         1 NCZ         0.1348 
     27 H8         -0.4718   13.0570    4.3486 H         1 NCZ         0.1341 
     28 H12         0.8300    6.7325    1.0992 H         1 NCZ         0.1032 
     29 H13        -1.6529    7.1953   -0.5328 H         1 NCZ         0.0836 
     30 H14        -1.3798    4.5253   -1.0443 H         1 NCZ         0.1528 
     31 H15        -1.6934    3.8963    1.4876 H         1 NCZ         0.1528 
     32 H16        -1.9284    6.4894    2.3500 H         1 NCZ         0.0836 
     33 H6         -0.8179    5.1210    3.7280 H         1 NCZ         0.4243 
     34 H5          1.0633    6.5423   -1.1650 H         1 NCZ         0.4243 
     35 H2         -0.2180   11.1552    5.3713 H         1 NCZ         0.4084 
     36 H3          0.7795   13.3551   -2.2638 H         1 NCZ         0.1346 
     37 H171        2.2820    9.4171   -3.6769 H         1 NCZ         0.0417 
     38 H172        0.9902    8.8893   -2.6159 H         1 NCZ         0.0417 
     39 H173        2.5746    9.3425   -1.9467 H         1 NCZ         0.0417 
     40 H181        0.1018   15.3298   -1.2017 H         1 NCZ         0.0733 
     41 H182        0.6894   15.4234    0.4543 H         1 NCZ         0.0733 
     42 H183       -1.0268   15.1224    0.1305 H         1 NCZ         0.0733 
@<TRIPOS>BOND
     1    1    2 ar   
     2    1   21 ar   
     3    1   25 1    
     4    2    3 ar   
     5    2    7 ar   
     6    3    4 ar   
     7    3   19 ar   
     8    4    5 ar   
     9    4   26 1    
    10    5    6 ar   
    11    5   27 1    
    12    6    7 ar   
    13    6   18 1    
    14    7    8 1    
    15    8    9 2    
    16    8   10 1    
    17   10   11 1    
    18   11   12 1    
    19   11   15 1    
    20   11   28 1    
    21   12   13 1    
    22   12   17 1    
    23   12   29 1    
    24   13   14 2    
    25   13   30 1    
    26   14   15 1    
    27   14   31 1    
    28   15   16 1    
    29   15   32 1    
    30   16   33 1    
    31   17   34 1    
    32   18   35 1    
    33   19   20 ar   
    34   19   24 1    
    35   20   21 ar   
    36   20   36 1    
    37   21   22 1    
    38   22   23 1    
    39   23   37 1    
    40   23   38 1    
    41   23   39 1    
    42   24   40 1    
    43   24   41 1    
    44   24   42 1    
@<TRIPOS>SUBSTRUCTURE
     1 NCZ         1 GROUP             0       ****    0 ROOT    
@<TRIPOS>MOLECULE
NCZ
42   44    1
SMALL
USER_CHARGES


@<TRIPOS>ATOM
      1 C1          0.7478   10.6691   -0.2993 C.ar      1 NCZ        -0.1709 
      2 C6          0.3259   11.2418    0.9437 C.ar      1 NCZ         0.0726 
      3 C5          0.0981   12.6603    0.9713 C.ar      1 NCZ        -0.0959 
      4 C7         -0.2377   13.2742    2.2041 C.ar      1 NCZ        -0.0424 
      5 C8         -0.2904   12.5372    3.3730 C.ar      1 NCZ        -0.2379 
      6 C9         -0.0805   11.1689    3.3648 C.ar      1 NCZ         0.2611 
      7 C10         0.1577   10.4729    2.1620 C.ar      1 NCZ        -0.3060 
      8 C11         0.3134    8.9743    2.2124 C.2       1 NCZ         0.6421 
      9 O3          0.8725    8.3854    3.1443 O.2       1 NCZ        -0.4040 
     10 O4         -0.3357    8.3373    1.2116 O.3       1 NCZ        -0.3226 
     11 C12        -0.1286    6.9418    0.9707 C.3       1 NCZ         0.0648 
     12 C13        -0.7018    6.5636   -0.3899 C.3       1 NCZ         0.2089 
     13 C14        -1.0490    5.1036   -0.2005 C.2       1 NCZ        -0.2040 
     14 C15        -1.1269    4.7949    1.1072 C.2       1 NCZ        -0.2040 
     15 C16        -0.8023    5.9908    1.9797 C.3       1 NCZ         0.2089 
     16 O6          0.0275    5.6326    3.0652 O.3       1 NCZ        -0.6331 
     17 O5          0.1576    6.8110   -1.4867 O.3       1 NCZ        -0.6331 
     18 O2         -0.1461   10.5431    4.5863 O.3       1 NCZ        -0.5507 
     19 C4          0.2354   13.4206   -0.2320 C.ar      1 NCZ        -0.0224 
     20 C3          0.6439   12.7990   -1.4062 C.ar      1 NCZ        -0.1967 
     21 C2          0.9250   11.4430   -1.4521 C.ar      1 NCZ         0.1767 
     22 O1          1.3800   10.9609   -2.6639 O.3       1 NCZ        -0.3596 
     23 C17         1.7986    9.6033   -2.7638 C.3       1 NCZ         0.1374 
     24 C18        -0.0278   14.9223   -0.2406 C.3       1 NCZ        -0.1312 
     25 H1          0.9733    9.6162   -0.3473 H         1 NCZ         0.1606 
     26 H7         -0.4193   14.3374    2.2537 H         1 NCZ         0.1348 
     27 H8         -0.5024   13.0404    4.3051 H         1 NCZ         0.1341 
     28 H12         0.9534    6.8054    0.9506 H         1 NCZ         0.1032 
     29 H13        -1.6380    7.0994   -0.5341 H         1 NCZ         0.0836 
     30 H14        -1.2489    4.4415   -1.0323 H         1 NCZ         0.1528 
     31 H15        -1.3987    3.8370    1.5271 H         1 NCZ         0.1528 
     32 H16        -1.7326    6.4230    2.3531 H         1 NCZ         0.0836 
     33 H6          0.3774    6.4359    3.4635 H         1 NCZ         0.4243 
     34 H5          1.0789    6.5419   -1.2958 H         1 NCZ         0.4243 
     35 H2          0.1591    9.6315    4.5359 H         1 NCZ         0.4084 
     36 H3          0.7715   13.3821   -2.3067 H         1 NCZ         0.1346 
     37 H171        2.2375    9.4280   -3.7457 H         1 NCZ         0.0417 
     38 H172        0.9486    8.9316   -2.6641 H         1 NCZ         0.0417 
     39 H173        2.5554    9.3430   -2.0203 H         1 NCZ         0.0417 
     40 H181        0.0832   15.3492   -1.2380 H         1 NCZ         0.0733 
     41 H182        0.6744   15.4352    0.4173 H         1 NCZ         0.0733 
     42 H183       -1.0421   15.1377    0.0957 H         1 NCZ         0.0733 
@<TRIPOS>BOND
     1    1    2 ar   
     2    1   21 ar   
     3    1   25 1    
     4    2    3 ar   
     5    2    7 ar   
     6    3    4 ar   
     7    3   19 ar   
     8    4    5 ar   
     9    4   26 1    
    10    5    6 ar   
    11    5   27 1    
    12    6    7 ar   
    13    6   18 1    
    14    7    8 1    
    15    8    9 2    
    16    8   10 1    
    17   10   11 1    
    18   11   12 1    
    19   11   15 1    
    20   11   28 1    
    21   12   13 1    
    22   12   17 1    
    23   12   29 1    
    24   13   14 2    
    25   13   30 1    
    26   14   15 1    
    27   14   31 1    
    28   15   16 1    
    29   15   32 1    
    30   16   33 1    
    31   17   34 1    
    32   18   35 1    
    33   19   20 ar   
    34   19   24 1    
    35   20   21 ar   
    36   20   36 1    
    37   21   22 1    
    38   22   23 1    
    39   23   37 1    
    40   23   38 1    
    41   23   39 1    
    42   24   40 1    
    43   24   41 1    
    44   24   42 1    
@<TRIPOS>SUBSTRUCTURE
     1 NCZ         1 GROUP             0       ****    0 ROOT    
@<TRIPOS>MOLECULE
NCZ
42   44    1
SMALL
USER_CHARGES


@<TRIPOS>ATOM
      1 C1         -0.6487   11.3513   -2.0305 C.ar      1 NCZ        -0.1709 
      2 C6         -0.6018   10.4467   -3.1337 C.ar      1 NCZ         0.0726 
      3 C5         -1.0190   10.9303   -4.4163 C.ar      1 NCZ        -0.0959 
      4 C7         -0.9523   10.0480   -5.5278 C.ar      1 NCZ        -0.0424 
      5 C8         -0.4451    8.7643   -5.3910 C.ar      1 NCZ        -0.2379 
      6 C9         -0.0173    8.2908   -4.1601 C.ar      1 NCZ         0.2611 
      7 C10        -0.1431    9.0880   -3.0088 C.ar      1 NCZ        -0.3060 
      8 C11         0.1922    8.4933   -1.6847 C.2       1 NCZ         0.6421 
      9 O3          1.0466    8.9563   -0.9296 O.2       1 NCZ        -0.4040 
     10 O4         -0.6420    7.4628   -1.3903 O.3       1 NCZ        -0.3226 
     11 C12        -0.4112    6.5647   -0.3050 C.3       1 NCZ         0.0648 
     12 C13        -1.4904    5.4680   -0.3059 C.3       1 NCZ         0.2089 
     13 C14        -1.7710    5.2725    1.1650 C.2       1 NCZ        -0.2040 
     14 C15        -1.1643    6.2016    1.9245 C.2       1 NCZ        -0.2040 
     15 C16        -0.3650    7.1879    1.1007 C.3       1 NCZ         0.2089 
     16 O6          0.9520    7.3424    1.5996 O.3       1 NCZ        -0.6331 
     17 O5         -1.0739    4.2729   -0.9325 O.3       1 NCZ        -0.6331 
     18 O2          0.5573    7.0399   -4.1363 O.3       1 NCZ        -0.5507 
     19 C4         -1.4765   12.2806   -4.5343 C.ar      1 NCZ        -0.0224 
     20 C3         -1.4681   13.1221   -3.4251 C.ar      1 NCZ        -0.1967 
     21 C2         -1.0439   12.6816   -2.1804 C.ar      1 NCZ         0.1767 
     22 O1         -1.0420   13.6125   -1.1602 O.3       1 NCZ        -0.3596 
     23 C17        -0.6019   13.2289    0.1395 C.3       1 NCZ         0.1374 
     24 C18        -1.9558   12.8199   -5.8751 C.3       1 NCZ        -0.1312 
     25 H1         -0.3356   11.0076   -1.0599 H         1 NCZ         0.1606 
     26 H7         -1.2583   10.3835   -6.5070 H         1 NCZ         0.1348 
     27 H8         -0.3588    8.1324   -6.2623 H         1 NCZ         0.1341 
     28 H12         0.5579    6.1420   -0.5400 H         1 NCZ         0.1032 
     29 H13        -2.4007    5.8240   -0.7894 H         1 NCZ         0.0836 
     30 H14        -2.4171    4.4855    1.5257 H         1 NCZ         0.1528 
     31 H15        -1.2337    6.2820    3.0004 H         1 NCZ         0.1528 
     32 H16        -0.8748    8.1528    1.1057 H         1 NCZ         0.0836 
     33 H6          1.5831    7.1773    0.8803 H         1 NCZ         0.4243 
     34 H5         -1.7684    3.6065   -0.8938 H         1 NCZ         0.4243 
     35 H2          1.2284    6.9399   -3.4384 H         1 NCZ         0.4084 
     36 H3         -1.7911   14.1480   -3.5271 H         1 NCZ         0.1346 
     37 H171       -0.6438   14.0935    0.8022 H         1 NCZ         0.0417 
     38 H172        0.4307   12.8762    0.1266 H         1 NCZ         0.0417 
     39 H173       -1.2428   12.4563    0.5662 H         1 NCZ         0.0417 
     40 H181       -2.3008   13.8522   -5.8002 H         1 NCZ         0.0733 
     41 H182       -2.7869   12.2231   -6.2492 H         1 NCZ         0.0733 
     42 H183       -1.1483   12.7919   -6.6070 H         1 NCZ         0.0733 
@<TRIPOS>BOND
     1    1    2 ar   
     2    1   21 ar   
     3    1   25 1    
     4    2    3 ar   
     5    2    7 ar   
     6    3    4 ar   
     7    3   19 ar   
     8    4    5 ar   
     9    4   26 1    
    10    5    6 ar   
    11    5   27 1    
    12    6    7 ar   
    13    6   18 1    
    14    7    8 1    
    15    8    9 2    
    16    8   10 1    
    17   10   11 1    
    18   11   12 1    
    19   11   15 1    
    20   11   28 1    
    21   12   13 1    
    22   12   17 1    
    23   12   29 1    
    24   13   14 2    
    25   13   30 1    
    26   14   15 1    
    27   14   31 1    
    28   15   16 1    
    29   15   32 1    
    30   16   33 1    
    31   17   34 1    
    32   18   35 1    
    33   19   20 ar   
    34   19   24 1    
    35   20   21 ar   
    36   20   36 1    
    37   21   22 1    
    38   22   23 1    
    39   23   37 1    
    40   23   38 1    
    41   23   39 1    
    42   24   40 1    
    43   24   41 1    
    44   24   42 1    
@<TRIPOS>SUBSTRUCTURE
     1 NCZ         1 GROUP             0       ****    0 ROOT    
@<TRIPOS>MOLECULE
NCZ
42   44    1
SMALL
USER_CHARGES


@<TRIPOS>ATOM
      1 C1          0.1580   10.6470    2.3452 C.ar      1 NCZ        -0.1709 
      2 C6          0.2622   10.5090    3.7684 C.ar      1 NCZ         0.0726 
      3 C5          0.0746   11.7030    4.5463 C.ar      1 NCZ        -0.0959 
      4 C7          0.2349   11.6343    5.9516 C.ar      1 NCZ        -0.0424 
      5 C8          0.5814   10.4487    6.5706 C.ar      1 NCZ        -0.2379 
      6 C9          0.7484    9.2821    5.8450 C.ar      1 NCZ         0.2611 
      7 C10         0.5580    9.2500    4.4457 C.ar      1 NCZ        -0.3060 
      8 C11         0.7021    7.9123    3.7405 C.2       1 NCZ         0.6421 
      9 O3          1.3582    6.9706    4.1913 O.2       1 NCZ        -0.4040 
     10 O4         -0.0600    7.7935    2.6276 O.3       1 NCZ        -0.3226 
     11 C12         0.0035    6.6631    1.7703 C.3       1 NCZ         0.0648 
     12 C13        -0.6952    6.9508    0.4367 C.3       1 NCZ         0.2089 
     13 C14        -1.2872    5.6047    0.0791 C.2       1 NCZ        -0.2040 
     14 C15        -1.2947    4.7723    1.1359 C.2       1 NCZ        -0.2040 
     15 C16        -0.6923    5.4226    2.3635 C.3       1 NCZ         0.2089 
     16 O6          0.1580    4.5419    3.0666 O.3       1 NCZ        -0.6331 
     17 O5          0.1580    7.4599   -0.5702 O.3       1 NCZ        -0.6331 
     18 O2          1.0879    8.1727    6.5811 O.3       1 NCZ        -0.5507 
     19 C4         -0.2568   12.9318    3.8915 C.ar      1 NCZ        -0.0224 
     20 C3         -0.3750   12.9768    2.5077 C.ar      1 NCZ        -0.1967 
     21 C2         -0.1718   11.8546    1.7249 C.ar      1 NCZ         0.1767 
     22 O1         -0.3110   12.0230    0.3605 O.3       1 NCZ        -0.3596 
     23 C17        -0.1771   10.8955   -0.5010 C.3       1 NCZ         0.1374 
     24 C18        -0.4862   14.2074    4.6930 C.3       1 NCZ        -0.1312 
     25 H1          0.3720    9.8110    1.7073 H         1 NCZ         0.1606 
     26 H7          0.1083   12.5161    6.5616 H         1 NCZ         0.1348 
     27 H8          0.7180   10.4324    7.6426 H         1 NCZ         0.1341 
     28 H12         1.0688    6.5419    1.5909 H         1 NCZ         0.1032 
     29 H13        -1.5178    7.6540    0.5842 H         1 NCZ         0.0836 
     30 H14        -1.6793    5.3903   -0.9043 H         1 NCZ         0.1528 
     31 H15        -1.6917    3.7677    1.1579 H         1 NCZ         0.1528 
     32 H16        -1.4947    5.7413    3.0292 H         1 NCZ         0.0836 
     33 H6          0.6596    5.0395    3.7223 H         1 NCZ         0.4243 
     34 H5          0.9884    6.9481   -0.6171 H         1 NCZ         0.4243 
     35 H2          1.2468    7.4108    6.0130 H         1 NCZ         0.4084 
     36 H3         -0.6333   13.9059    2.0190 H         1 NCZ         0.1346 
     37 H171       -0.3445   11.2079   -1.5316 H         1 NCZ         0.0417 
     38 H172       -0.9148   10.1254   -0.2684 H         1 NCZ         0.0417 
     39 H173        0.8242   10.4631   -0.4479 H         1 NCZ         0.0417 
     40 H181       -0.7622   15.0457    4.0518 H         1 NCZ         0.0733 
     41 H182        0.4190   14.4900    5.2310 H         1 NCZ         0.0733 
     42 H183       -1.2918   14.0686    5.4136 H         1 NCZ         0.0733 
@<TRIPOS>BOND
     1    1    2 ar   
     2    1   21 ar   
     3    1   25 1    
     4    2    3 ar   
     5    2    7 ar   
     6    3    4 ar   
     7    3   19 ar   
     8    4    5 ar   
     9    4   26 1    
    10    5    6 ar   
    11    5   27 1    
    12    6    7 ar   
    13    6   18 1    
    14    7    8 1    
    15    8    9 2    
    16    8   10 1    
    17   10   11 1    
    18   11   12 1    
    19   11   15 1    
    20   11   28 1    
    21   12   13 1    
    22   12   17 1    
    23   12   29 1    
    24   13   14 2    
    25   13   30 1    
    26   14   15 1    
    27   14   31 1    
    28   15   16 1    
    29   15   32 1    
    30   16   33 1    
    31   17   34 1    
    32   18   35 1    
    33   19   20 ar   
    34   19   24 1    
    35   20   21 ar   
    36   20   36 1    
    37   21   22 1    
    38   22   23 1    
    39   23   37 1    
    40   23   38 1    
    41   23   39 1    
    42   24   40 1    
    43   24   41 1    
    44   24   42 1    
@<TRIPOS>SUBSTRUCTURE
     1 NCZ         1 GROUP             0       ****    0 ROOT    
@<TRIPOS>MOLECULE
NCZ
42   44    1
SMALL
USER_CHARGES


@<TRIPOS>ATOM
      1 C1         -0.2420    6.2016    2.2233 C.ar      1 NCZ        -0.1709 
      2 C6          0.0333    7.5188    2.7010 C.ar      1 NCZ         0.0726 
      3 C5          0.2531    7.6756    4.1119 C.ar      1 NCZ        -0.0959 
      4 C7          0.5580    8.9658    4.6194 C.ar      1 NCZ        -0.0424 
      5 C8          0.5068   10.0792    3.7975 C.ar      1 NCZ        -0.2379 
      6 C9          0.2018    9.9588    2.4471 C.ar      1 NCZ         0.2611 
      7 C10         0.0278    8.6916    1.8502 C.ar      1 NCZ        -0.3060 
      8 C11        -0.2232    8.5895    0.3710 C.2       1 NCZ         0.6421 
      9 O3         -1.0419    7.8248   -0.1346 O.2       1 NCZ        -0.4040 
     10 O4          0.5768    9.4129   -0.3456 O.3       1 NCZ        -0.3226 
     11 C12         0.6236    9.4107   -1.7791 C.3       1 NCZ         0.0648 
     12 C13         1.8192   10.2808   -2.1852 C.3       1 NCZ         0.2089 
     13 C14         1.1644   11.5898   -2.5732 C.2       1 NCZ        -0.2040 
     14 C15        -0.1681   11.4610   -2.7050 C.2       1 NCZ        -0.2040 
     15 C16        -0.6226   10.0458   -2.4256 C.3       1 NCZ         0.2089 
     16 O6         -1.0320    9.3813   -3.6038 O.3       1 NCZ        -0.6331 
     17 O5          2.5817    9.7415   -3.2409 O.3       1 NCZ        -0.6331 
     18 O2          0.1295   11.1317    1.7366 O.3       1 NCZ        -0.5507 
     19 C4          0.1110    6.5428    4.9694 C.ar      1 NCZ        -0.0224 
     20 C3         -0.2420    5.3060    4.4392 C.ar      1 NCZ        -0.1967 
     21 C2         -0.3763    5.1074    3.0767 C.ar      1 NCZ         0.1767 
     22 O1         -0.6420    3.8183    2.6563 O.3       1 NCZ        -0.3596 
     23 C17        -1.0369    3.5955    1.3060 C.3       1 NCZ         0.1374 
     24 C18         0.3017    6.6760    6.4751 C.3       1 NCZ        -0.1312 
     25 H1         -0.3423    6.0299    1.1676 H         1 NCZ         0.1606 
     26 H7          0.7588    9.1043    5.6710 H         1 NCZ         0.1348 
     27 H8          0.6838   11.0575    4.2196 H         1 NCZ         0.1341 
     28 H12         0.7705    8.3687   -2.0773 H         1 NCZ         0.1032 
     29 H13         2.4859   10.4262   -1.3320 H         1 NCZ         0.0836 
     30 H14         1.7411   12.4891   -2.7304 H         1 NCZ         0.1528 
     31 H15        -0.8627   12.2385   -2.9873 H         1 NCZ         0.1528 
     32 H16        -1.4574   10.0588   -1.7236 H         1 NCZ         0.0836 
     33 H6         -0.2722    9.3491   -4.1921 H         1 NCZ         0.4243 
     34 H5          2.8711    8.8478   -2.9795 H         1 NCZ         0.4243 
     35 H2          0.1437   10.9680    0.7895 H         1 NCZ         0.4084 
     36 H3         -0.3502    4.4576    5.0979 H         1 NCZ         0.1346 
     37 H171       -1.2712    2.5425    1.1734 H         1 NCZ         0.0417 
     38 H172       -0.2420    3.8353    0.6004 H         1 NCZ         0.0417 
     39 H173       -1.9314    4.1655    1.0490 H         1 NCZ         0.0417 
     40 H181        0.1556    5.7240    6.9869 H         1 NCZ         0.0733 
     41 H182       -0.4148    7.3861    6.8892 H         1 NCZ         0.0733 
     42 H183        1.3115    7.0184    6.7018 H         1 NCZ         0.0733 
@<TRIPOS>BOND
     1    1    2 ar   
     2    1   21 ar   
     3    1   25 1    
     4    2    3 ar   
     5    2    7 ar   
     6    3    4 ar   
     7    3   19 ar   
     8    4    5 ar   
     9    4   26 1    
    10    5    6 ar   
    11    5   27 1    
    12    6    7 ar   
    13    6   18 1    
    14    7    8 1    
    15    8    9 2    
    16    8   10 1    
    17   10   11 1    
    18   11   12 1    
    19   11   15 1    
    20   11   28 1    
    21   12   13 1    
    22   12   17 1    
    23   12   29 1    
    24   13   14 2    
    25   13   30 1    
    26   14   15 1    
    27   14   31 1    
    28   15   16 1    
    29   15   32 1    
    30   16   33 1    
    31   17   34 1    
    32   18   35 1    
    33   19   20 ar   
    34   19   24 1    
    35   20   21 ar   
    36   20   36 1    
    37   21   22 1    
    38   22   23 1    
    39   23   37 1    
    40   23   38 1    
    41   23   39 1    
    42   24   40 1    
    43   24   41 1    
    44   24   42 1    
@<TRIPOS>SUBSTRUCTURE
     1 NCZ         1 GROUP             0       ****    0 ROOT    
@<TRIPOS>MOLECULE
NCZ
42   44    1
SMALL
USER_CHARGES


@<TRIPOS>ATOM
      1 C1          0.5742    9.3803    4.3852 C.ar      1 NCZ        -0.1709 
      2 C6          0.1681   10.5439    3.6514 C.ar      1 NCZ         0.0726 
      3 C5         -0.0513   11.7427    4.4148 C.ar      1 NCZ        -0.0959 
      4 C7         -0.3356   12.9461    3.7279 C.ar      1 NCZ        -0.0424 
      5 C8         -0.4279   12.9728    2.3507 C.ar      1 NCZ        -0.2379 
      6 C9         -0.2917   11.8186    1.5997 C.ar      1 NCZ         0.2611 
      7 C10        -0.0084   10.5748    2.2050 C.ar      1 NCZ        -0.3060 
      8 C11         0.1565    9.3641    1.3059 C.2       1 NCZ         0.6421 
      9 O3          0.5583    9.4271    0.1451 O.2       1 NCZ        -0.4040 
     10 O4         -0.3022    8.2128    1.8624 O.3       1 NCZ        -0.3226 
     11 C12        -0.1820    6.9287    1.2355 C.3       1 NCZ         0.0648 
     12 C13        -0.9746    6.7352   -0.0726 C.3       1 NCZ         0.2089 
     13 C14        -1.4414    5.2997    0.0304 C.2       1 NCZ        -0.2040 
     14 C15        -1.2954    4.8203    1.2769 C.2       1 NCZ        -0.2040 
     15 C16        -0.7169    5.8612    2.2093 C.3       1 NCZ         0.2089 
     16 O6          0.2600    5.3119    3.0669 O.3       1 NCZ        -0.6331 
     17 O5         -0.2405    6.9624   -1.2593 O.3       1 NCZ        -0.6331 
     18 O2         -0.4935   11.9738    0.2508 O.3       1 NCZ        -0.5507 
     19 C4          0.0320   11.7031    5.8421 C.ar      1 NCZ        -0.0224 
     20 C3          0.3647   10.5200    6.4887 C.ar      1 NCZ        -0.1967 
     21 C2          0.6663    9.3703    5.7802 C.ar      1 NCZ         0.1767 
     22 O1          1.0072    8.2636    6.5287 O.3       1 NCZ        -0.3596 
     23 C17         1.9552    7.3429    6.0031 C.3       1 NCZ         0.1374 
     24 C18        -0.2366   12.9518    6.6745 C.3       1 NCZ        -0.1312 
     25 H1          0.8223    8.4762    3.8614 H         1 NCZ         0.1606 
     26 H7         -0.4794   13.8677    4.2716 H         1 NCZ         0.1348 
     27 H8         -0.6426   13.9142    1.8654 H         1 NCZ         0.1341 
     28 H12         0.8822    6.7919    1.0459 H         1 NCZ         0.1032 
     29 H13        -1.8492    7.3838   -0.0673 H         1 NCZ         0.0836 
     30 H14        -1.8625    4.7684   -0.8119 H         1 NCZ         0.1528 
     31 H15        -1.5800    3.8372    1.6249 H         1 NCZ         0.1528 
     32 H16        -1.5355    6.2621    2.8113 H         1 NCZ         0.0836 
     33 H6          0.5103    5.9655    3.7224 H         1 NCZ         0.4243 
     34 H5          0.6746    6.6514   -1.1571 H         1 NCZ         0.4243 
     35 H2         -0.6300   12.8878   -0.0015 H         1 NCZ         0.4084 
     36 H3          0.4223   10.4913    7.5671 H         1 NCZ         0.1346 
     37 H171        2.1133    6.5536    6.7367 H         1 NCZ         0.0417 
     38 H172        2.9201    7.8241    5.8450 H         1 NCZ         0.0417 
     39 H173        1.6256    6.8636    5.0820 H         1 NCZ         0.0417 
     40 H181       -0.1682   12.7509    7.7443 H         1 NCZ         0.0733 
     41 H182       -1.2377   13.3364    6.4777 H         1 NCZ         0.0733 
     42 H183        0.4895   13.7311    6.4404 H         1 NCZ         0.0733 
@<TRIPOS>BOND
     1    1    2 ar   
     2    1   21 ar   
     3    1   25 1    
     4    2    3 ar   
     5    2    7 ar   
     6    3    4 ar   
     7    3   19 ar   
     8    4    5 ar   
     9    4   26 1    
    10    5    6 ar   
    11    5   27 1    
    12    6    7 ar   
    13    6   18 1    
    14    7    8 1    
    15    8    9 2    
    16    8   10 1    
    17   10   11 1    
    18   11   12 1    
    19   11   15 1    
    20   11   28 1    
    21   12   13 1    
    22   12   17 1    
    23   12   29 1    
    24   13   14 2    
    25   13   30 1    
    26   14   15 1    
    27   14   31 1    
    28   15   16 1    
    29   15   32 1    
    30   16   33 1    
    31   17   34 1    
    32   18   35 1    
    33   19   20 ar   
    34   19   24 1    
    35   20   21 ar   
    36   20   36 1    
    37   21   22 1    
    38   22   23 1    
    39   23   37 1    
    40   23   38 1    
    41   23   39 1    
    42   24   40 1    
    43   24   41 1    
    44   24   42 1    
@<TRIPOS>SUBSTRUCTURE
     1 NCZ         1 GROUP             0       ****    0 ROOT    
@<TRIPOS>MOLECULE
NCZ
42   44    1
SMALL
USER_CHARGES


@<TRIPOS>ATOM
      1 C1          0.1590   10.3432    3.5443 C.ar      1 NCZ        -0.1709 
      2 C6          0.3150    9.8653    4.8852 C.ar      1 NCZ         0.0726 
      3 C5          0.0918   10.8139    5.9407 C.ar      1 NCZ        -0.0959 
      4 C7          0.2950   10.4006    7.2804 C.ar      1 NCZ        -0.0424 
      5 C8          0.7204    9.1175    7.5718 C.ar      1 NCZ        -0.2379 
      6 C9          0.9221    8.1813    6.5712 C.ar      1 NCZ         0.2611 
      7 C10         0.6853    8.4981    5.2178 C.ar      1 NCZ        -0.3060 
      8 C11         0.8923    7.4180    4.1845 C.2       1 NCZ         0.6421 
      9 O3          1.7573    6.5431    4.2673 O.2       1 NCZ        -0.4040 
     10 O4         -0.0569    7.4283    3.2209 O.3       1 NCZ        -0.3226 
     11 C12        -0.0171    6.5415    2.1072 C.3       1 NCZ         0.0648 
     12 C13        -0.7253    7.1571    0.8966 C.3       1 NCZ         0.2089 
     13 C14        -1.4272    5.9683    0.2783 C.2       1 NCZ        -0.2040 
     14 C15        -1.4316    4.9071    1.1053 C.2       1 NCZ        -0.2040 
     15 C16        -0.7109    5.2016    2.4046 C.3       1 NCZ         0.2089 
     16 O6          0.1579    4.1526    2.7715 O.3       1 NCZ        -0.6331 
     17 O5          0.1573    7.8008   -0.0023 O.3       1 NCZ        -0.6331 
     18 O2          1.3460    6.9419    6.9891 O.3       1 NCZ        -0.5507 
     19 C4         -0.3163   12.1479    5.6204 C.ar      1 NCZ        -0.0224 
     20 C3         -0.4763   12.5315    4.2933 C.ar      1 NCZ        -0.1967 
     21 C2         -0.2427   11.6499    3.2519 C.ar      1 NCZ         0.1767 
     22 O1         -0.4440   12.1392    1.9756 O.3       1 NCZ        -0.3596 
     23 C17        -0.3204   11.2596    0.8615 C.3       1 NCZ         0.1374 
     24 C18        -0.5726   13.1706    6.7217 C.3       1 NCZ        -0.1312 
     25 H1          0.3691    9.6791    2.7246 H         1 NCZ         0.1606 
     26 H7          0.1406   11.0910    8.0960 H         1 NCZ         0.1348 
     27 H8          0.8876    8.8385    8.6015 H         1 NCZ         0.1341 
     28 H12         1.0363    6.4292    1.8668 H         1 NCZ         0.1032 
     29 H13        -1.4863    7.8699    1.2207 H         1 NCZ         0.0836 
     30 H14        -1.8874    6.0170   -0.6975 H         1 NCZ         0.1528 
     31 H15        -1.8930    3.9480    0.9134 H         1 NCZ         0.1528 
     32 H16        -1.4420    5.3423    3.1980 H         1 NCZ         0.0836 
     33 H6          0.7547    4.4609    3.4617 H         1 NCZ         0.4243 
     34 H5          0.8610    7.1908   -0.2701 H         1 NCZ         0.4243 
     35 H2          1.5355    6.3369    6.2616 H         1 NCZ         0.4084 
     36 H3         -0.7842   13.5398    4.0542 H         1 NCZ         0.1346 
     37 H171       -0.5475   11.8065   -0.0532 H         1 NCZ         0.0417 
     38 H172       -1.0197   10.4257    0.9288 H         1 NCZ         0.0417 
     39 H173        0.6953   10.8703    0.7656 H         1 NCZ         0.0417 
     40 H181       -0.8847   14.1334    6.3177 H         1 NCZ         0.0733 
     41 H182        0.3333   13.3364    7.3053 H         1 NCZ         0.0733 
     42 H183       -1.3602   12.8264    7.3911 H         1 NCZ         0.0733 
@<TRIPOS>BOND
     1    1    2 ar   
     2    1   21 ar   
     3    1   25 1    
     4    2    3 ar   
     5    2    7 ar   
     6    3    4 ar   
     7    3   19 ar   
     8    4    5 ar   
     9    4   26 1    
    10    5    6 ar   
    11    5   27 1    
    12    6    7 ar   
    13    6   18 1    
    14    7    8 1    
    15    8    9 2    
    16    8   10 1    
    17   10   11 1    
    18   11   12 1    
    19   11   15 1    
    20   11   28 1    
    21   12   13 1    
    22   12   17 1    
    23   12   29 1    
    24   13   14 2    
    25   13   30 1    
    26   14   15 1    
    27   14   31 1    
    28   15   16 1    
    29   15   32 1    
    30   16   33 1    
    31   17   34 1    
    32   18   35 1    
    33   19   20 ar   
    34   19   24 1    
    35   20   21 ar   
    36   20   36 1    
    37   21   22 1    
    38   22   23 1    
    39   23   37 1    
    40   23   38 1    
    41   23   39 1    
    42   24   40 1    
    43   24   41 1    
    44   24   42 1    
@<TRIPOS>SUBSTRUCTURE
     1 NCZ         1 GROUP             0       ****    0 ROOT    
@<TRIPOS>MOLECULE
NCZ
42   44    1
SMALL
USER_CHARGES


@<TRIPOS>ATOM
      1 C1         -0.6113   11.3926   -2.0593 C.ar      1 NCZ        -0.1709 
      2 C6         -0.5415   10.4922   -3.1650 C.ar      1 NCZ         0.0726 
      3 C5         -0.9447   10.9784   -4.4523 C.ar      1 NCZ        -0.0959 
      4 C7         -0.8728   10.0975   -5.5641 C.ar      1 NCZ        -0.0424 
      5 C8         -0.3870    8.8065   -5.4213 C.ar      1 NCZ        -0.2379 
      6 C9          0.0266    8.3288   -4.1871 C.ar      1 NCZ         0.2611 
      7 C10        -0.0820    9.1333   -3.0381 C.ar      1 NCZ        -0.3060 
      8 C11         0.2503    8.5397   -1.7115 C.2       1 NCZ         0.6421 
      9 O3          1.0760    9.0151   -0.9326 O.2       1 NCZ        -0.4040 
     10 O4         -0.5697    7.4916   -1.4444 O.3       1 NCZ        -0.3226 
     11 C12        -0.3958    6.6168   -0.3313 C.3       1 NCZ         0.0648 
     12 C13        -1.5013    5.5540   -0.3546 C.3       1 NCZ         0.2089 
     13 C14        -1.8416    5.3947    1.1069 C.2       1 NCZ        -0.2040 
     14 C15        -1.2460    6.3252    1.8726 C.2       1 NCZ        -0.2040 
     15 C16        -0.3990    7.2764    1.0589 C.3       1 NCZ         0.2089 
     16 O6          0.8980    7.4263    1.6048 O.3       1 NCZ        -0.6331 
     17 O5         -1.1087    4.3297   -0.9333 O.3       1 NCZ        -0.6331 
     18 O2          0.5579    7.0589   -4.1582 O.3       1 NCZ        -0.5507 
     19 C4         -1.4003   12.3287   -4.5748 C.ar      1 NCZ        -0.0224 
     20 C3         -1.4196   13.1644   -3.4608 C.ar      1 NCZ        -0.1967 
     21 C2         -1.0182   12.7197   -2.2096 C.ar      1 NCZ         0.1767 
     22 O1         -1.0419   13.6459   -1.1850 O.3       1 NCZ        -0.3596 
     23 C17        -0.5994   13.2671    0.1149 C.3       1 NCZ         0.1374 
     24 C18        -1.8523   12.8738   -5.9242 C.3       1 NCZ        -0.1312 
     25 H1         -0.3154   11.0466   -1.0840 H         1 NCZ         0.1606 
     26 H7         -1.1734   10.4338   -6.5451 H         1 NCZ         0.1348 
     27 H8         -0.3101    8.1701   -6.2906 H         1 NCZ         0.1341 
     28 H12         0.5580    6.1421   -0.5168 H         1 NCZ         0.1032 
     29 H13        -2.3842    5.9218   -0.8746 H         1 NCZ         0.0836 
     30 H14        -2.5139    4.6228    1.4536 H         1 NCZ         0.1528 
     31 H15        -1.3527    6.4273    2.9430 H         1 NCZ         0.1528 
     32 H16        -0.8954    8.2474    1.0195 H         1 NCZ         0.0836 
     33 H6          1.5511    7.3154    0.8961 H         1 NCZ         0.4243 
     34 H5         -0.8055    4.4679   -1.8368 H         1 NCZ         0.4243 
     35 H2          1.2330    6.9410   -3.4668 H         1 NCZ         0.4084 
     36 H3         -1.7447   14.1892   -3.5646 H         1 NCZ         0.1346 
     37 H171       -0.6418   14.1320    0.7770 H         1 NCZ         0.0417 
     38 H172        0.4344   12.9182    0.1030 H         1 NCZ         0.0417 
     39 H173       -1.2370   12.4925    0.5433 H         1 NCZ         0.0417 
     40 H181       -2.1848   13.9099   -5.8534 H         1 NCZ         0.0733 
     41 H182       -2.6859   12.2875   -6.3123 H         1 NCZ         0.0733 
     42 H183       -1.0341   12.8377   -6.6438 H         1 NCZ         0.0733 
@<TRIPOS>BOND
     1    1    2 ar   
     2    1   21 ar   
     3    1   25 1    
     4    2    3 ar   
     5    2    7 ar   
     6    3    4 ar   
     7    3   19 ar   
     8    4    5 ar   
     9    4   26 1    
    10    5    6 ar   
    11    5   27 1    
    12    6    7 ar   
    13    6   18 1    
    14    7    8 1    
    15    8    9 2    
    16    8   10 1    
    17   10   11 1    
    18   11   12 1    
    19   11   15 1    
    20   11   28 1    
    21   12   13 1    
    22   12   17 1    
    23   12   29 1    
    24   13   14 2    
    25   13   30 1    
    26   14   15 1    
    27   14   31 1    
    28   15   16 1    
    29   15   32 1    
    30   16   33 1    
    31   17   34 1    
    32   18   35 1    
    33   19   20 ar   
    34   19   24 1    
    35   20   21 ar   
    36   20   36 1    
    37   21   22 1    
    38   22   23 1    
    39   23   37 1    
    40   23   38 1    
    41   23   39 1    
    42   24   40 1    
    43   24   41 1    
    44   24   42 1    
@<TRIPOS>SUBSTRUCTURE
     1 NCZ         1 GROUP             0       ****    0 ROOT    
@<TRIPOS>MOLECULE
NCZ
42   44    1
SMALL
USER_CHARGES


@<TRIPOS>ATOM
      1 C1          0.2335    8.7797    2.0218 C.ar      1 NCZ        -0.1709 
      2 C6          0.1245   10.1780    2.2914 C.ar      1 NCZ         0.0726 
      3 C5          0.3500   10.6214    3.6384 C.ar      1 NCZ        -0.0959 
      4 C7          0.2305   12.0066    3.9253 C.ar      1 NCZ        -0.0424 
      5 C8         -0.0971   12.9161    2.9308 C.ar      1 NCZ        -0.2379 
      6 C9         -0.3127   12.4991    1.6258 C.ar      1 NCZ         0.2611 
      7 C10        -0.2206   11.1425    1.2805 C.ar      1 NCZ        -0.3060 
      8 C11        -0.4805   10.7352   -0.1305 C.2       1 NCZ         0.6421 
      9 O3         -1.4193   10.0115   -0.4667 O.2       1 NCZ        -0.4040 
     10 O4          0.4950   11.1855   -0.9520 O.3       1 NCZ        -0.3226 
     11 C12         0.5715   10.7940   -2.3237 C.3       1 NCZ         0.0648 
     12 C13         1.3636    9.4895   -2.4739 C.3       1 NCZ         0.2089 
     13 C14         2.1576    9.7430   -3.7328 C.2       1 NCZ        -0.2040 
     14 C15         2.1281   11.0369   -4.0984 C.2       1 NCZ        -0.2040 
     15 C16         1.3193   11.8660   -3.1253 C.3       1 NCZ         0.2089 
     16 O6          0.4543   12.7717   -3.7781 O.3       1 NCZ        -0.6331 
     17 O5          0.5578    8.3362   -2.5803 O.3       1 NCZ        -0.6331 
     18 O2         -0.6420   13.4600    0.7030 O.3       1 NCZ        -0.5507 
     19 C4          0.6894    9.6586    4.6425 C.ar      1 NCZ        -0.0224 
     20 C3          0.7909    8.3084    4.3138 C.ar      1 NCZ        -0.1967 
     21 C2          0.5580    7.8604    3.0124 C.ar      1 NCZ         0.1767 
     22 O1          0.5847    6.5384    2.6253 O.3       1 NCZ        -0.3596 
     23 C17         1.0026    5.5390    3.5465 C.3       1 NCZ         0.1374 
     24 C18         0.9440   10.0955    6.0796 C.3       1 NCZ        -0.1312 
     25 H1          0.0674    8.4010    1.0237 H         1 NCZ         0.1606 
     26 H7          0.3969   12.3700    4.9283 H         1 NCZ         0.1348 
     27 H8         -0.1787   13.9634    3.1832 H         1 NCZ         0.1341 
     28 H12        -0.4346   10.6753   -2.7328 H         1 NCZ         0.1032 
     29 H13         2.0641    9.3591   -1.6451 H         1 NCZ         0.0836 
     30 H14         2.7008    8.9400   -4.2093 H         1 NCZ         0.1528 
     31 H15         2.6483   11.4749   -4.9374 H         1 NCZ         0.1528 
     32 H16         2.0064   12.4206   -2.4823 H         1 NCZ         0.0836 
     33 H6          0.9886   13.4401   -4.2131 H         1 NCZ         0.4243 
     34 H5          1.1725    7.5829   -2.5191 H         1 NCZ         0.4243 
     35 H2         -0.8838   14.2965    1.1092 H         1 NCZ         0.4084 
     36 H3          1.0412    7.6029    5.0914 H         1 NCZ         0.1346 
     37 H171        0.9572    4.5608    3.0664 H         1 NCZ         0.0417 
     38 H172        0.3516    5.4999    4.4208 H         1 NCZ         0.0417 
     39 H173        2.0332    5.7035    3.8663 H         1 NCZ         0.0417 
     40 H181        1.1895    9.2511    6.7246 H         1 NCZ         0.0733 
     41 H182        0.0591   10.5785    6.4948 H         1 NCZ         0.0733 
     42 H183        1.7793   10.7949    6.1228 H         1 NCZ         0.0733 
@<TRIPOS>BOND
     1    1    2 ar   
     2    1   21 ar   
     3    1   25 1    
     4    2    3 ar   
     5    2    7 ar   
     6    3    4 ar   
     7    3   19 ar   
     8    4    5 ar   
     9    4   26 1    
    10    5    6 ar   
    11    5   27 1    
    12    6    7 ar   
    13    6   18 1    
    14    7    8 1    
    15    8    9 2    
    16    8   10 1    
    17   10   11 1    
    18   11   12 1    
    19   11   15 1    
    20   11   28 1    
    21   12   13 1    
    22   12   17 1    
    23   12   29 1    
    24   13   14 2    
    25   13   30 1    
    26   14   15 1    
    27   14   31 1    
    28   15   16 1    
    29   15   32 1    
    30   16   33 1    
    31   17   34 1    
    32   18   35 1    
    33   19   20 ar   
    34   19   24 1    
    35   20   21 ar   
    36   20   36 1    
    37   21   22 1    
    38   22   23 1    
    39   23   37 1    
    40   23   38 1    
    41   23   39 1    
    42   24   40 1    
    43   24   41 1    
    44   24   42 1    
@<TRIPOS>SUBSTRUCTURE
     1 NCZ         1 GROUP             0       ****    0 ROOT    
@<TRIPOS>MOLECULE
NCZ
42   44    1
SMALL
USER_CHARGES


@<TRIPOS>ATOM
      1 C1          0.1585   10.6529    3.2119 C.ar      1 NCZ        -0.1709 
      2 C6          0.1896   10.2763    4.5930 C.ar      1 NCZ         0.0726 
      3 C5         -0.1719   11.2861    5.5494 C.ar      1 NCZ        -0.0959 
      4 C7         -0.1084   10.9696    6.9298 C.ar      1 NCZ        -0.0424 
      5 C8          0.3102    9.7219    7.3564 C.ar      1 NCZ        -0.2379 
      6 C9          0.6494    8.7298    6.4520 C.ar      1 NCZ         0.2611 
      7 C10         0.5664    8.9508    5.0603 C.ar      1 NCZ        -0.3060 
      8 C11         0.9235    7.8067    4.1398 C.2       1 NCZ         0.6421 
      9 O3          1.7575    6.9442    4.4182 O.2       1 NCZ        -0.4040 
     10 O4          0.1259    7.7511    3.0526 O.3       1 NCZ        -0.3226 
     11 C12         0.1581    6.7058    2.0891 C.3       1 NCZ         0.0648 
     12 C13        -0.6041    7.1166    0.8182 C.3       1 NCZ         0.2089 
     13 C14        -1.1123    5.7836    0.3117 C.2       1 NCZ        -0.2040 
     14 C15        -1.0941    4.8577    1.2875 C.2       1 NCZ        -0.2040 
     15 C16        -0.5831    5.4509    2.5810 C.3       1 NCZ         0.2089 
     16 O6          0.1938    4.5448    3.3245 O.3       1 NCZ        -0.6331 
     17 O5          0.1625    7.8013   -0.1481 O.3       1 NCZ        -0.6331 
     18 O2          1.0460    7.5294    6.9949 O.3       1 NCZ        -0.5507 
     19 C4         -0.5743   12.5818    5.0926 C.ar      1 NCZ        -0.0224 
     20 C3         -0.6016   12.8679    3.7315 C.ar      1 NCZ        -0.1967 
     21 C2         -0.2428   11.9214    2.7851 C.ar      1 NCZ         0.1767 
     22 O1         -0.3207   12.3102    1.4616 O.3       1 NCZ        -0.3596 
     23 C17        -0.1396   11.3363    0.4367 C.3       1 NCZ         0.1374 
     24 C18        -0.9736   13.6682    6.0854 C.3       1 NCZ        -0.1312 
     25 H1          0.4776    9.9489    2.4641 H         1 NCZ         0.1606 
     26 H7         -0.3689   11.7089    7.6728 H         1 NCZ         0.1348 
     27 H8          0.3653    9.5173    8.4157 H         1 NCZ         0.1341 
     28 H12         1.2096    6.5415    1.8552 H         1 NCZ         0.1032 
     29 H13        -1.4659    7.7345    1.0772 H         1 NCZ         0.0836 
     30 H14        -1.4674    5.6426   -0.6988 H         1 NCZ         0.1528 
     31 H15        -1.4348    3.8342    1.2145 H         1 NCZ         0.1528 
     32 H16        -1.4417    5.7395    3.1908 H         1 NCZ         0.0836 
     33 H6          1.0472    4.4127    2.8998 H         1 NCZ         0.4243 
     34 H5          0.9288    7.2608   -0.3960 H         1 NCZ         0.4243 
     35 H2          1.3078    6.8978    6.3156 H         1 NCZ         0.4084 
     36 H3         -0.9086   13.8461    3.3892 H         1 NCZ         0.1346 
     37 H171       -0.3031   11.8023   -0.5348 H         1 NCZ         0.0417 
     38 H172       -0.8571   10.5183    0.5310 H         1 NCZ         0.0417 
     39 H173        0.8741   10.9319    0.4389 H         1 NCZ         0.0417 
     40 H181       -1.2654   14.5919    5.5828 H         1 NCZ         0.0733 
     41 H182       -0.1403   13.9032    6.7477 H         1 NCZ         0.0733 
     42 H183       -1.8191   13.3433    6.6931 H         1 NCZ         0.0733 
@<TRIPOS>BOND
     1    1    2 ar   
     2    1   21 ar   
     3    1   25 1    
     4    2    3 ar   
     5    2    7 ar   
     6    3    4 ar   
     7    3   19 ar   
     8    4    5 ar   
     9    4   26 1    
    10    5    6 ar   
    11    5   27 1    
    12    6    7 ar   
    13    6   18 1    
    14    7    8 1    
    15    8    9 2    
    16    8   10 1    
    17   10   11 1    
    18   11   12 1    
    19   11   15 1    
    20   11   28 1    
    21   12   13 1    
    22   12   17 1    
    23   12   29 1    
    24   13   14 2    
    25   13   30 1    
    26   14   15 1    
    27   14   31 1    
    28   15   16 1    
    29   15   32 1    
    30   16   33 1    
    31   17   34 1    
    32   18   35 1    
    33   19   20 ar   
    34   19   24 1    
    35   20   21 ar   
    36   20   36 1    
    37   21   22 1    
    38   22   23 1    
    39   23   37 1    
    40   23   38 1    
    41   23   39 1    
    42   24   40 1    
    43   24   41 1    
    44   24   42 1    
@<TRIPOS>SUBSTRUCTURE
     1 NCZ         1 GROUP             0       ****    0 ROOT    
@<TRIPOS>MOLECULE
NCZ
42   44    1
SMALL
USER_CHARGES


@<TRIPOS>ATOM
      1 C1          0.1573    9.9928    2.2351 C.ar      1 NCZ        -0.1709 
      2 C6          0.2607    8.6111    2.5928 C.ar      1 NCZ         0.0726 
      3 C5          0.8074    8.3092    3.8870 C.ar      1 NCZ        -0.0959 
      4 C7          0.9477    6.9498    4.2665 C.ar      1 NCZ        -0.0424 
      5 C8          0.4530    5.9353    3.4666 C.ar      1 NCZ        -0.2379 
      6 C9         -0.1899    6.2178    2.2720 C.ar      1 NCZ         0.2611 
      7 C10        -0.2615    7.5355    1.7791 C.ar      1 NCZ        -0.3060 
      8 C11        -1.1176    7.7955    0.5723 C.2       1 NCZ         0.6421 
      9 O3         -2.2422    7.3114    0.4566 O.2       1 NCZ        -0.4040 
     10 O4         -0.5890    8.6068   -0.3841 O.3       1 NCZ        -0.3226 
     11 C12         0.4686    8.1875   -1.2613 C.3       1 NCZ         0.0648 
     12 C13         1.2937    9.4064   -1.7234 C.3       1 NCZ         0.2089 
     13 C14         1.1663    9.3984   -3.2311 C.2       1 NCZ        -0.2040 
     14 C15         0.4423    8.3591   -3.6747 C.2       1 NCZ        -0.2040 
     15 C16        -0.0999    7.5301   -2.5337 C.3       1 NCZ         0.2089 
     16 O6          0.1579    6.1517   -2.6558 O.3       1 NCZ        -0.6331 
     17 O5          2.6456    9.3415   -1.3348 O.3       1 NCZ        -0.6331 
     18 O2         -0.7348    5.1455    1.6087 O.3       1 NCZ        -0.5507 
     19 C4          1.1454    9.3805    4.7751 C.ar      1 NCZ        -0.0224 
     20 C3          0.9552   10.7045    4.3860 C.ar      1 NCZ        -0.1967 
     21 C2          0.4701   11.0214    3.1164 C.ar      1 NCZ         0.1767 
     22 O1          0.2583   12.3062    2.6556 O.3       1 NCZ        -0.3596 
     23 C17         0.5840   13.4103    3.4915 C.3       1 NCZ         0.1374 
     24 C18         1.6903    9.0858    6.1683 C.3       1 NCZ        -0.1312 
     25 H1         -0.2412   10.2811    1.2772 H         1 NCZ         0.1606 
     26 H7          1.3895    6.6841    5.2154 H         1 NCZ         0.1348 
     27 H8          0.5395    4.9150    3.8125 H         1 NCZ         0.1341 
     28 H12         1.0981    7.4880   -0.7108 H         1 NCZ         0.1032 
     29 H13         0.8624   10.3302   -1.3342 H         1 NCZ         0.0836 
     30 H14         1.6437   10.1500   -3.8418 H         1 NCZ         0.1528 
     31 H15         0.2214    8.1274   -4.7054 H         1 NCZ         0.1528 
     32 H16        -1.1618    7.6616   -2.5833 H         1 NCZ         0.0836 
     33 H6          1.1220    6.0542   -2.5347 H         1 NCZ         0.4243 
     34 H5          2.9568    8.4298   -1.5253 H         1 NCZ         0.4243 
     35 H2         -0.5676    4.3147    2.0569 H         1 NCZ         0.4084 
     36 H3          1.2049   11.4879    5.0844 H         1 NCZ         0.1346 
     37 H171        0.3616   14.3373    2.9629 H         1 NCZ         0.0417 
     38 H172        1.6452   13.4213    3.7449 H         1 NCZ         0.0417 
     39 H173       -0.0061   13.4057    4.4091 H         1 NCZ         0.0417 
     40 H181        1.9490    9.9973    6.7079 H         1 NCZ         0.0733 
     41 H182        2.5906    8.4742    6.1097 H         1 NCZ         0.0733 
     42 H183        0.9464    8.5497    6.7586 H         1 NCZ         0.0733 
@<TRIPOS>BOND
     1    1    2 ar   
     2    1   21 ar   
     3    1   25 1    
     4    2    3 ar   
     5    2    7 ar   
     6    3    4 ar   
     7    3   19 ar   
     8    4    5 ar   
     9    4   26 1    
    10    5    6 ar   
    11    5   27 1    
    12    6    7 ar   
    13    6   18 1    
    14    7    8 1    
    15    8    9 2    
    16    8   10 1    
    17   10   11 1    
    18   11   12 1    
    19   11   15 1    
    20   11   28 1    
    21   12   13 1    
    22   12   17 1    
    23   12   29 1    
    24   13   14 2    
    25   13   30 1    
    26   14   15 1    
    27   14   31 1    
    28   15   16 1    
    29   15   32 1    
    30   16   33 1    
    31   17   34 1    
    32   18   35 1    
    33   19   20 ar   
    34   19   24 1    
    35   20   21 ar   
    36   20   36 1    
    37   21   22 1    
    38   22   23 1    
    39   23   37 1    
    40   23   38 1    
    41   23   39 1    
    42   24   40 1    
    43   24   41 1    
    44   24   42 1    
@<TRIPOS>SUBSTRUCTURE
     1 NCZ         1 GROUP             0       ****    0 ROOT    
@<TRIPOS>MOLECULE
NCZ
42   44    1
SMALL
USER_CHARGES


@<TRIPOS>ATOM
      1 C1         -0.2966   12.1921   -0.6909 C.ar      1 NCZ        -0.1709 
      2 C6         -0.1491   10.8792   -0.1541 C.ar      1 NCZ         0.0726 
      3 C5         -0.0106   10.7457    1.2664 C.ar      1 NCZ        -0.0959 
      4 C7          0.1528    9.4444    1.8123 C.ar      1 NCZ        -0.0424 
      5 C8          0.1871    8.3251    0.9947 C.ar      1 NCZ        -0.2379 
      6 C9          0.0727    8.4438   -0.3809 C.ar      1 NCZ         0.2611 
      7 C10        -0.1106    9.7019   -0.9781 C.ar      1 NCZ        -0.3060 
      8 C11        -0.2181    9.7733   -2.4598 C.2       1 NCZ         0.6421 
      9 O3         -1.2576   10.0665   -3.0521 O.2       1 NCZ        -0.4040 
     10 O4          0.9825    9.5365   -3.0490 O.3       1 NCZ        -0.3226 
     11 C12         1.1757    9.3598   -4.4594 C.3       1 NCZ         0.0648 
     12 C13         0.7539   10.5294   -5.3670 C.3       1 NCZ         0.2089 
     13 C14         0.3740    9.8042   -6.6391 C.2       1 NCZ        -0.2040 
     14 C15         0.2377    8.4783   -6.4424 C.2       1 NCZ        -0.2040 
     15 C16         0.5216    8.0837   -5.0092 C.3       1 NCZ         0.2089 
     16 O6          1.3578    6.9506   -4.9333 O.3       1 NCZ        -0.6331 
     17 O5          1.7792   11.4751   -5.5766 O.3       1 NCZ        -0.6331 
     18 O2          0.1582    7.2900   -1.1209 O.3       1 NCZ        -0.5507 
     19 C4         -0.0278   11.9210    2.0809 C.ar      1 NCZ        -0.0224 
     20 C3         -0.1617   13.1782    1.4955 C.ar      1 NCZ        -0.1967 
     21 C2         -0.2868   13.3251    0.1125 C.ar      1 NCZ         0.1767 
     22 O1         -0.4090   14.5364   -0.5400 O.3       1 NCZ        -0.3596 
     23 C17        -0.2368   15.7458    0.1916 C.3       1 NCZ         0.1374 
     24 C18         0.1227   11.8135    3.5938 C.3       1 NCZ        -0.1312 
     25 H1         -0.3993   12.3303   -1.7562 H         1 NCZ         0.1606 
     26 H7          0.2697    9.3092    2.8773 H         1 NCZ         0.1348 
     27 H8          0.3342    7.3484    1.4326 H         1 NCZ         0.1341 
     28 H12         2.2570    9.2371   -4.5428 H         1 NCZ         0.1032 
     29 H13        -0.1293   11.0474   -4.9987 H         1 NCZ         0.0836 
     30 H14         0.2034   10.3329   -7.5646 H         1 NCZ         0.1528 
     31 H15        -0.0582    7.7510   -7.1837 H         1 NCZ         0.1528 
     32 H16        -0.4209    7.8680   -4.5035 H         1 NCZ         0.0836 
     33 H6          1.8058    6.9414   -4.0616 H         1 NCZ         0.4243 
     34 H5          1.9967   11.8875   -4.7357 H         1 NCZ         0.4243 
     35 H2          1.0694    6.9419   -1.1090 H         1 NCZ         0.4084 
     36 H3         -0.1674   14.0487    2.1331 H         1 NCZ         0.1346 
     37 H171       -0.2778   16.5890   -0.4991 H         1 NCZ         0.0417 
     38 H172        0.7321   15.7791    0.6924 H         1 NCZ         0.0417 
     39 H173       -1.0272   15.8920    0.9277 H         1 NCZ         0.0417 
     40 H181        0.0365   12.7853    4.0820 H         1 NCZ         0.0733 
     41 H182        1.1005   11.4014    3.8475 H         1 NCZ         0.0733 
     42 H183       -0.6460   11.1643    4.0128 H         1 NCZ         0.0733 
@<TRIPOS>BOND
     1    1    2 ar   
     2    1   21 ar   
     3    1   25 1    
     4    2    3 ar   
     5    2    7 ar   
     6    3    4 ar   
     7    3   19 ar   
     8    4    5 ar   
     9    4   26 1    
    10    5    6 ar   
    11    5   27 1    
    12    6    7 ar   
    13    6   18 1    
    14    7    8 1    
    15    8    9 2    
    16    8   10 1    
    17   10   11 1    
    18   11   12 1    
    19   11   15 1    
    20   11   28 1    
    21   12   13 1    
    22   12   17 1    
    23   12   29 1    
    24   13   14 2    
    25   13   30 1    
    26   14   15 1    
    27   14   31 1    
    28   15   16 1    
    29   15   32 1    
    30   16   33 1    
    31   17   34 1    
    32   18   35 1    
    33   19   20 ar   
    34   19   24 1    
    35   20   21 ar   
    36   20   36 1    
    37   21   22 1    
    38   22   23 1    
    39   23   37 1    
    40   23   38 1    
    41   23   39 1    
    42   24   40 1    
    43   24   41 1    
    44   24   42 1    
@<TRIPOS>SUBSTRUCTURE
     1 NCZ         1 GROUP             0       ****    0 ROOT    
@<TRIPOS>MOLECULE
NCZ
42   44    1
SMALL
USER_CHARGES


@<TRIPOS>ATOM
      1 C1          0.1467   10.9011   -0.7035 C.ar      1 NCZ        -0.1709 
      2 C6          0.3640   11.9119   -1.6924 C.ar      1 NCZ         0.0726 
      3 C5          0.3085   13.2800   -1.2634 C.ar      1 NCZ        -0.0959 
      4 C7          0.5273   14.3018   -2.2233 C.ar      1 NCZ        -0.0424 
      5 C8          0.8022   13.9928   -3.5461 C.ar      1 NCZ        -0.2379 
      6 C9          0.8615   12.6757   -3.9762 C.ar      1 NCZ         0.2611 
      7 C10         0.6373   11.6147   -3.0816 C.ar      1 NCZ        -0.3060 
      8 C11         0.7079   10.2021   -3.5763 C.2       1 NCZ         0.6421 
      9 O3          1.3773    9.3418   -3.0153 O.2       1 NCZ        -0.4040 
     10 O4         -0.1208    9.9610   -4.6294 O.3       1 NCZ        -0.3226 
     11 C12        -0.4061    8.6406   -5.1267 C.3       1 NCZ         0.0648 
     12 C13         0.7996    7.7381   -5.4696 C.3       1 NCZ         0.2089 
     13 C14         0.4369    7.1800   -6.8269 C.2       1 NCZ        -0.2040 
     14 C15        -0.6934    7.7163   -7.3151 C.2       1 NCZ        -0.2040 
     15 C16        -1.2718    8.7629   -6.3914 C.3       1 NCZ         0.2089 
     16 O6         -2.6420    8.5417   -6.1333 O.3       1 NCZ        -0.6331 
     17 O5          0.9578    6.6911   -4.5337 O.3       1 NCZ        -0.6331 
     18 O2          1.1742   12.4697   -5.2975 O.3       1 NCZ        -0.5507 
     19 C4          0.0405   13.5729    0.1110 C.ar      1 NCZ        -0.0224 
     20 C3         -0.1480   12.5392    1.0243 C.ar      1 NCZ        -0.1967 
     21 C2         -0.0846   11.2084    0.6401 C.ar      1 NCZ         0.1767 
     22 O1         -0.2527   10.2664    1.6377 O.3       1 NCZ        -0.3596 
     23 C17        -0.0859    8.8840    1.3279 C.3       1 NCZ         0.1374 
     24 C18        -0.0335   15.0156    0.5963 C.3       1 NCZ        -0.1312 
     25 H1          0.1764    9.8651   -0.9945 H         1 NCZ         0.1606 
     26 H7          0.4934   15.3402   -1.9299 H         1 NCZ         0.1348 
     27 H8          0.9787   14.7988   -4.2433 H         1 NCZ         0.1341 
     28 H12        -0.9907    8.1567   -4.3417 H         1 NCZ         0.1032 
     29 H13         1.7197    8.3188   -5.5547 H         1 NCZ         0.0836 
     30 H14         1.0529    6.4389   -7.3160 H         1 NCZ         0.1528 
     31 H15        -1.1431    7.4844   -8.2696 H         1 NCZ         0.1528 
     32 H16        -1.1412    9.7420   -6.8572 H         1 NCZ         0.0836 
     33 H6         -3.0997    8.3665   -6.9627 H         1 NCZ         0.4243 
     34 H5          1.5992    6.9418   -3.8391 H         1 NCZ         0.4243 
     35 H2          1.3504   13.2885   -5.7641 H         1 NCZ         0.4084 
     36 H3         -0.3381   12.7683    2.0624 H         1 NCZ         0.1346 
     37 H171       -0.1848    8.2944    2.2392 H         1 NCZ         0.0417 
     38 H172        0.9008    8.6746    0.9108 H         1 NCZ         0.0417 
     39 H173       -0.8490    8.5373    0.6294 H         1 NCZ         0.0417 
     40 H181       -0.2466   15.0743    1.6645 H         1 NCZ         0.0733 
     41 H182       -0.8261   15.5539    0.0754 H         1 NCZ         0.0733 
     42 H183        0.9126   15.5282    0.4211 H         1 NCZ         0.0733 
@<TRIPOS>BOND
     1    1    2 ar   
     2    1   21 ar   
     3    1   25 1    
     4    2    3 ar   
     5    2    7 ar   
     6    3    4 ar   
     7    3   19 ar   
     8    4    5 ar   
     9    4   26 1    
    10    5    6 ar   
    11    5   27 1    
    12    6    7 ar   
    13    6   18 1    
    14    7    8 1    
    15    8    9 2    
    16    8   10 1    
    17   10   11 1    
    18   11   12 1    
    19   11   15 1    
    20   11   28 1    
    21   12   13 1    
    22   12   17 1    
    23   12   29 1    
    24   13   14 2    
    25   13   30 1    
    26   14   15 1    
    27   14   31 1    
    28   15   16 1    
    29   15   32 1    
    30   16   33 1    
    31   17   34 1    
    32   18   35 1    
    33   19   20 ar   
    34   19   24 1    
    35   20   21 ar   
    36   20   36 1    
    37   21   22 1    
    38   22   23 1    
    39   23   37 1    
    40   23   38 1    
    41   23   39 1    
    42   24   40 1    
    43   24   41 1    
    44   24   42 1    
@<TRIPOS>SUBSTRUCTURE
     1 NCZ         1 GROUP             0       ****    0 ROOT    
@<TRIPOS>MOLECULE
NCZ
42   44    1
SMALL
USER_CHARGES


@<TRIPOS>ATOM
      1 C1          0.5580   11.1797    3.3912 C.ar      1 NCZ        -0.1709 
      2 C6          1.1270   12.4153    2.9556 C.ar      1 NCZ         0.0726 
      3 C5          1.8902   13.1620    3.9160 C.ar      1 NCZ        -0.0959 
      4 C7          2.4163   14.4217    3.5319 C.ar      1 NCZ        -0.0424 
      5 C8          2.1842   14.9336    2.2666 C.ar      1 NCZ        -0.2379 
      6 C9          1.4677   14.2166    1.3230 C.ar      1 NCZ         0.2611 
      7 C10         0.9590   12.9379    1.6164 C.ar      1 NCZ        -0.3060 
      8 C11         0.1871   12.2098    0.5550 C.2       1 NCZ         0.6421 
      9 O3         -0.6420   12.7642   -0.1710 O.2       1 NCZ        -0.4040 
     10 O4          0.5754   10.9097    0.4127 O.3       1 NCZ        -0.3226 
     11 C12        -0.1402   10.0047   -0.4422 C.3       1 NCZ         0.0648 
     12 C13        -1.4826    9.6258    0.1961 C.3       1 NCZ         0.2089 
     13 C14        -1.4420    8.1149    0.2666 C.2       1 NCZ        -0.2040 
     14 C15        -0.2898    7.6197   -0.2150 C.2       1 NCZ        -0.2040 
     15 C16         0.6373    8.7054   -0.7068 C.3       1 NCZ         0.2089 
     16 O6          0.9580    8.5418   -2.0668 O.3       1 NCZ        -0.6331 
     17 O5         -2.5756   10.1418   -0.5334 O.3       1 NCZ        -0.6331 
     18 O2          1.2987   14.8155    0.0983 O.3       1 NCZ        -0.5507 
     19 C4          2.0876   12.6267    5.2296 C.ar      1 NCZ        -0.0224 
     20 C3          1.5336   11.3974    5.5752 C.ar      1 NCZ        -0.1967 
     21 C2          0.7841   10.6686    4.6666 C.ar      1 NCZ         0.1767 
     22 O1          0.2575    9.4648    5.0707 O.3       1 NCZ        -0.3596 
     23 C17         0.5611    8.3392    4.2499 C.3       1 NCZ         0.1374 
     24 C18         2.9006   13.3927    6.2661 C.3       1 NCZ        -0.1312 
     25 H1         -0.0563   10.6028    2.7255 H         1 NCZ         0.1606 
     26 H7          2.9901   15.0103    4.2316 H         1 NCZ         0.1348 
     27 H8          2.5784   15.9057    2.0088 H         1 NCZ         0.1341 
     28 H12        -0.3004   10.5198   -1.3925 H         1 NCZ         0.1032 
     29 H13        -1.5480   10.0013    1.2163 H         1 NCZ         0.0836 
     30 H14        -2.2552    7.5370    0.6805 H         1 NCZ         0.1528 
     31 H15        -0.0019    6.5779   -0.2619 H         1 NCZ         0.1528 
     32 H16         1.5575    8.6623   -0.1334 H         1 NCZ         0.0836 
     33 H6          1.6518    7.8522   -2.1334 H         1 NCZ         0.4243 
     34 H5         -3.3244   10.2001    0.0785 H         1 NCZ         0.4243 
     35 H2          0.6884   14.3223   -0.4574 H         1 NCZ         0.4084 
     36 H3          1.6860   10.9920    6.5647 H         1 NCZ         0.1346 
     37 H171        0.1270    7.4440    4.6957 H         1 NCZ         0.0417 
     38 H172        1.6385    8.1817    4.1779 H         1 NCZ         0.0417 
     39 H173        0.1580    8.4273    3.2407 H         1 NCZ         0.0417 
     40 H181        2.9639   12.8540    7.2123 H         1 NCZ         0.0733 
     41 H182        2.4437   14.3615    6.4701 H         1 NCZ         0.0733 
     42 H183        3.9181   13.5552    5.9095 H         1 NCZ         0.0733 
@<TRIPOS>BOND
     1    1    2 ar   
     2    1   21 ar   
     3    1   25 1    
     4    2    3 ar   
     5    2    7 ar   
     6    3    4 ar   
     7    3   19 ar   
     8    4    5 ar   
     9    4   26 1    
    10    5    6 ar   
    11    5   27 1    
    12    6    7 ar   
    13    6   18 1    
    14    7    8 1    
    15    8    9 2    
    16    8   10 1    
    17   10   11 1    
    18   11   12 1    
    19   11   15 1    
    20   11   28 1    
    21   12   13 1    
    22   12   17 1    
    23   12   29 1    
    24   13   14 2    
    25   13   30 1    
    26   14   15 1    
    27   14   31 1    
    28   15   16 1    
    29   15   32 1    
    30   16   33 1    
    31   17   34 1    
    32   18   35 1    
    33   19   20 ar   
    34   19   24 1    
    35   20   21 ar   
    36   20   36 1    
    37   21   22 1    
    38   22   23 1    
    39   23   37 1    
    40   23   38 1    
    41   23   39 1    
    42   24   40 1    
    43   24   41 1    
    44   24   42 1    
@<TRIPOS>SUBSTRUCTURE
     1 NCZ         1 GROUP             0       ****    0 ROOT    
@<TRIPOS>MOLECULE
NCZ
42   44    1
SMALL
USER_CHARGES


@<TRIPOS>ATOM
      1 C1          0.1580   10.7870    2.3218 C.ar      1 NCZ        -0.1709 
      2 C6          0.1589    9.3572    2.2666 C.ar      1 NCZ         0.0726 
      3 C5          0.5580    8.6577    3.4626 C.ar      1 NCZ        -0.0959 
      4 C7          0.5057    7.2410    3.4698 C.ar      1 NCZ        -0.0424 
      5 C8          0.0559    6.5436    2.3638 C.ar      1 NCZ        -0.2379 
      6 C9         -0.2670    7.1958    1.1850 C.ar      1 NCZ         0.2611 
      7 C10        -0.1978    8.5997    1.0825 C.ar      1 NCZ        -0.3060 
      8 C11        -0.4356    9.2593   -0.2520 C.2       1 NCZ         0.6421 
      9 O3         -1.0570   10.3122   -0.4044 O.2       1 NCZ        -0.4040 
     10 O4          0.2070    8.6009   -1.2641 O.3       1 NCZ        -0.3226 
     11 C12         0.4512    9.1278   -2.5814 C.3       1 NCZ         0.0648 
     12 C13         1.5756   10.1764   -2.5758 C.3       1 NCZ         0.2089 
     13 C14         0.9441   11.3591   -3.2740 C.2       1 NCZ        -0.2040 
     14 C15        -0.3035   11.0970   -3.7036 C.2       1 NCZ        -0.2040 
     15 C16        -0.7502    9.6898   -3.3690 C.3       1 NCZ         0.2089 
     16 O6         -1.0426    8.9429   -4.5327 O.3       1 NCZ        -0.6331 
     17 O5          2.7437    9.7418   -3.2386 O.3       1 NCZ        -0.6331 
     18 O2         -0.6420    6.3967    0.1334 O.3       1 NCZ        -0.5507 
     19 C4          0.9308    9.4007    4.6281 C.ar      1 NCZ        -0.0224 
     20 C3          0.8793   10.7908    4.6144 C.ar      1 NCZ        -0.1967 
     21 C2          0.4886   11.4922    3.4838 C.ar      1 NCZ         0.1767 
     22 O1          0.4529   12.8690    3.5964 O.3       1 NCZ        -0.3596 
     23 C17        -0.0249   13.6475    2.5031 C.3       1 NCZ         0.1374 
     24 C18         1.3533    8.6826    5.9042 C.3       1 NCZ        -0.1312 
     25 H1         -0.1144   11.3503    1.4495 H         1 NCZ         0.1606 
     26 H7          0.7769    6.6840    4.3546 H         1 NCZ         0.1348 
     27 H8         -0.0007    5.4654    2.4090 H         1 NCZ         0.1341 
     28 H12         0.8155    8.2402   -3.1035 H         1 NCZ         0.1032 
     29 H13         1.8368   10.4549   -1.5532 H         1 NCZ         0.0836 
     30 H14         1.4744   12.2931   -3.3876 H         1 NCZ         0.1528 
     31 H15        -0.9512   11.7922   -4.2172 H         1 NCZ         0.1528 
     32 H16        -1.6503    9.7419   -2.7581 H         1 NCZ         0.0836 
     33 H6         -1.2475    9.5625   -5.2381 H         1 NCZ         0.4243 
     34 H5          2.9578    8.8428   -2.9269 H         1 NCZ         0.4243 
     35 H2         -0.1648    6.6500   -0.6647 H         1 NCZ         0.4084 
     36 H3          1.1422   11.3464    5.5027 H         1 NCZ         0.1346 
     37 H171       -0.0415   14.6994    2.7882 H         1 NCZ         0.0417 
     38 H172       -1.0420   13.3669    2.2246 H         1 NCZ         0.0417 
     39 H173        0.6252   13.5532    1.6318 H         1 NCZ         0.0417 
     40 H181        1.6705    9.3810    6.6793 H         1 NCZ         0.0733 
     41 H182        2.1884    8.0093    5.7079 H         1 NCZ         0.0733 
     42 H183        0.5227    8.0982    6.3021 H         1 NCZ         0.0733 
@<TRIPOS>BOND
     1    1    2 ar   
     2    1   21 ar   
     3    1   25 1    
     4    2    3 ar   
     5    2    7 ar   
     6    3    4 ar   
     7    3   19 ar   
     8    4    5 ar   
     9    4   26 1    
    10    5    6 ar   
    11    5   27 1    
    12    6    7 ar   
    13    6   18 1    
    14    7    8 1    
    15    8    9 2    
    16    8   10 1    
    17   10   11 1    
    18   11   12 1    
    19   11   15 1    
    20   11   28 1    
    21   12   13 1    
    22   12   17 1    
    23   12   29 1    
    24   13   14 2    
    25   13   30 1    
    26   14   15 1    
    27   14   31 1    
    28   15   16 1    
    29   15   32 1    
    30   16   33 1    
    31   17   34 1    
    32   18   35 1    
    33   19   20 ar   
    34   19   24 1    
    35   20   21 ar   
    36   20   36 1    
    37   21   22 1    
    38   22   23 1    
    39   23   37 1    
    40   23   38 1    
    41   23   39 1    
    42   24   40 1    
    43   24   41 1    
    44   24   42 1    
@<TRIPOS>SUBSTRUCTURE
     1 NCZ         1 GROUP             0       ****    0 ROOT    
@<TRIPOS>MOLECULE
NCZ
42   44    1
SMALL
USER_CHARGES


@<TRIPOS>ATOM
      1 C1         -0.3544    9.8660   -0.7353 C.ar      1 NCZ        -0.1709 
      2 C6          0.0398   11.1606   -1.1851 C.ar      1 NCZ         0.0726 
      3 C5          0.3363   12.1543   -0.1955 C.ar      1 NCZ        -0.0959 
      4 C7          0.7961   13.4261   -0.6298 C.ar      1 NCZ        -0.0424 
      5 C8          0.9580   13.7025   -1.9807 C.ar      1 NCZ        -0.2379 
      6 C9          0.6388   12.7587   -2.9468 C.ar      1 NCZ         0.2611 
      7 C10         0.1562   11.4944   -2.5786 C.ar      1 NCZ        -0.3060 
      8 C11        -0.2615   10.5309   -3.6339 C.2       1 NCZ         0.6421 
      9 O3         -1.4416   10.2341   -3.8342 O.2       1 NCZ        -0.4040 
     10 O4          0.8019    9.9411   -4.2482 O.3       1 NCZ        -0.3226 
     11 C12         0.6632    8.8859   -5.2174 C.3       1 NCZ         0.0648 
     12 C13        -0.0922    9.2934   -6.4983 C.3       1 NCZ         0.2089 
     13 C14        -1.0858    8.1658   -6.6802 C.2       1 NCZ        -0.2040 
     14 C15        -1.0289    7.2635   -5.6840 C.2       1 NCZ        -0.2040 
     15 C16         0.0328    7.5947   -4.6576 C.3       1 NCZ         0.2089 
     16 O6          0.9580    6.5419   -4.5335 O.3       1 NCZ        -0.6331 
     17 O5          0.7586    9.4489   -7.6172 O.3       1 NCZ        -0.6331 
     18 O2          0.8015   13.1210   -4.2615 O.3       1 NCZ        -0.5507 
     19 C4          0.1611   11.8328    1.1879 C.ar      1 NCZ        -0.0224 
     20 C3         -0.2409   10.5531    1.5628 C.ar      1 NCZ        -0.1967 
     21 C2         -0.4641    9.5615    0.6194 C.ar      1 NCZ         0.1767 
     22 O1         -0.8067    8.3057    1.0676 O.3       1 NCZ        -0.3596 
     23 C17        -0.1589    7.2051    0.4335 C.3       1 NCZ         0.1374 
     24 C18         0.4231   12.8781    2.2647 C.3       1 NCZ        -0.1312 
     25 H1         -0.5585    9.0917   -1.4563 H         1 NCZ         0.1606 
     26 H7          1.0400   14.1915    0.0923 H         1 NCZ         0.1348 
     27 H8          1.3228   14.6764   -2.2736 H         1 NCZ         0.1341 
     28 H12         1.6967    8.6629   -5.4850 H         1 NCZ         0.1032 
     29 H13        -0.6453   10.2230   -6.3548 H         1 NCZ         0.0836 
     30 H14        -1.7680    8.1419   -7.5179 H         1 NCZ         0.1528 
     31 H15        -1.6528    6.3870   -5.5852 H         1 NCZ         0.1528 
     32 H16        -0.4387    7.7608   -3.6880 H         1 NCZ         0.0836 
     33 H6          1.5924    6.7148   -3.8084 H         1 NCZ         0.4243 
     34 H5          1.3483   10.1895   -7.4529 H         1 NCZ         0.4243 
     35 H2          1.1891   13.9931   -4.3561 H         1 NCZ         0.4084 
     36 H3         -0.3487   10.3068    2.6086 H         1 NCZ         0.1346 
     37 H171       -0.3620    6.2932    0.9971 H         1 NCZ         0.0417 
     38 H172        0.9262    7.3413    0.4040 H         1 NCZ         0.0417 
     39 H173       -0.5198    7.0440   -0.5840 H         1 NCZ         0.0417 
     40 H181        0.2271   12.4888    3.2645 H         1 NCZ         0.0733 
     41 H182       -0.2188   13.7477    2.1162 H         1 NCZ         0.0733 
     42 H183        1.4644   13.2017    2.2356 H         1 NCZ         0.0733 
@<TRIPOS>BOND
     1    1    2 ar   
     2    1   21 ar   
     3    1   25 1    
     4    2    3 ar   
     5    2    7 ar   
     6    3    4 ar   
     7    3   19 ar   
     8    4    5 ar   
     9    4   26 1    
    10    5    6 ar   
    11    5   27 1    
    12    6    7 ar   
    13    6   18 1    
    14    7    8 1    
    15    8    9 2    
    16    8   10 1    
    17   10   11 1    
    18   11   12 1    
    19   11   15 1    
    20   11   28 1    
    21   12   13 1    
    22   12   17 1    
    23   12   29 1    
    24   13   14 2    
    25   13   30 1    
    26   14   15 1    
    27   14   31 1    
    28   15   16 1    
    29   15   32 1    
    30   16   33 1    
    31   17   34 1    
    32   18   35 1    
    33   19   20 ar   
    34   19   24 1    
    35   20   21 ar   
    36   20   36 1    
    37   21   22 1    
    38   22   23 1    
    39   23   37 1    
    40   23   38 1    
    41   23   39 1    
    42   24   40 1    
    43   24   41 1    
    44   24   42 1    
@<TRIPOS>SUBSTRUCTURE
     1 NCZ         1 GROUP             0       ****    0 ROOT    
@<TRIPOS>MOLECULE
NCZ
42   44    1
SMALL
USER_CHARGES


@<TRIPOS>ATOM
      1 C1         -0.2143   11.9880   -2.4546 C.ar      1 NCZ        -0.1709 
      2 C6         -0.1675   10.8197   -1.6378 C.ar      1 NCZ         0.0726 
      3 C5         -0.2827   10.9894   -0.2177 C.ar      1 NCZ        -0.0959 
      4 C7         -0.2443    9.8363    0.6106 C.ar      1 NCZ        -0.0424 
      5 C8         -0.0988    8.5711    0.0635 C.ar      1 NCZ        -0.2379 
      6 C9          0.0118    8.3940   -1.3065 C.ar      1 NCZ         0.2611 
      7 C10        -0.0176    9.4949   -2.1798 C.ar      1 NCZ        -0.3060 
      8 C11         0.1010    9.2433   -3.6455 C.2       1 NCZ         0.6421 
      9 O3          1.0836    9.5541   -4.3201 O.2       1 NCZ        -0.4040 
     10 O4         -1.0420    8.6880   -4.1334 O.3       1 NCZ        -0.3226 
     11 C12        -1.1952    8.1604   -5.4579 C.3       1 NCZ         0.0648 
     12 C13        -0.3467    6.9128   -5.7049 C.3       1 NCZ         0.2089 
     13 C14        -0.1036    6.9924   -7.1956 C.2       1 NCZ        -0.2040 
     14 C15        -0.4528    8.1913   -7.7009 C.2       1 NCZ        -0.2040 
     15 C16        -1.0049    9.1203   -6.6404 C.3       1 NCZ         0.2089 
     16 O6         -2.2132    9.7267   -7.0500 O.3       1 NCZ        -0.6331 
     17 O5         -1.0420    5.7418   -5.3334 O.3       1 NCZ        -0.6331 
     18 O2          0.1580    7.1055   -1.7578 O.3       1 NCZ        -0.5507 
     19 C4         -0.4297   12.3071    0.3169 C.ar      1 NCZ        -0.0224 
     20 C3         -0.4647   13.4087   -0.5334 C.ar      1 NCZ        -0.1967 
     21 C2         -0.3610   13.2615   -1.9177 C.ar      1 NCZ         0.1767 
     22 O1         -0.3984   14.3082   -2.8184 O.3       1 NCZ        -0.3596 
     23 C17        -0.5129   15.6417   -2.3337 C.3       1 NCZ         0.1374 
     24 C18        -0.5535   12.5242    1.8197 C.3       1 NCZ        -0.1312 
     25 H1         -0.1338   11.8984   -3.5272 H         1 NCZ         0.1606 
     26 H7         -0.3232    9.9307    1.6829 H         1 NCZ         0.1348 
     27 H8         -0.0596    7.7093    0.7143 H         1 NCZ         0.1341 
     28 H12        -2.2371    7.8382   -5.4825 H         1 NCZ         0.1032 
     29 H13         0.6135    6.9618   -5.1859 H         1 NCZ         0.0836 
     30 H14         0.3394    6.1735   -7.7442 H         1 NCZ         0.1528 
     31 H15        -0.3396    8.5054   -8.7284 H         1 NCZ         0.1528 
     32 H16        -0.2670    9.8934   -6.4266 H         1 NCZ         0.0836 
     33 H6         -2.8205    9.0367   -7.3334 H         1 NCZ         0.4243 
     34 H5         -1.1141    5.7114   -4.3722 H         1 NCZ         0.4243 
     35 H2          1.1004    6.8460   -1.7334 H         1 NCZ         0.4084 
     36 H3         -0.5811   14.3887   -0.0967 H         1 NCZ         0.1346 
     37 H171       -0.5191   16.3312   -3.1778 H         1 NCZ         0.0417 
     38 H172        0.3311   15.9095   -1.6961 H         1 NCZ         0.0417 
     39 H173       -1.4420   15.7897   -1.7815 H         1 NCZ         0.0417 
     40 H181       -0.6420   13.5813    2.0740 H         1 NCZ         0.0733 
     41 H182        0.3241   12.1339    2.3361 H         1 NCZ         0.0733 
     42 H183       -1.4386   12.0179    2.2025 H         1 NCZ         0.0733 
@<TRIPOS>BOND
     1    1    2 ar   
     2    1   21 ar   
     3    1   25 1    
     4    2    3 ar   
     5    2    7 ar   
     6    3    4 ar   
     7    3   19 ar   
     8    4    5 ar   
     9    4   26 1    
    10    5    6 ar   
    11    5   27 1    
    12    6    7 ar   
    13    6   18 1    
    14    7    8 1    
    15    8    9 2    
    16    8   10 1    
    17   10   11 1    
    18   11   12 1    
    19   11   15 1    
    20   11   28 1    
    21   12   13 1    
    22   12   17 1    
    23   12   29 1    
    24   13   14 2    
    25   13   30 1    
    26   14   15 1    
    27   14   31 1    
    28   15   16 1    
    29   15   32 1    
    30   16   33 1    
    31   17   34 1    
    32   18   35 1    
    33   19   20 ar   
    34   19   24 1    
    35   20   21 ar   
    36   20   36 1    
    37   21   22 1    
    38   22   23 1    
    39   23   37 1    
    40   23   38 1    
    41   23   39 1    
    42   24   40 1    
    43   24   41 1    
    44   24   42 1    
@<TRIPOS>SUBSTRUCTURE
     1 NCZ         1 GROUP             0       ****    0 ROOT    
@<TRIPOS>MOLECULE
NCZ
42   44    1
SMALL
USER_CHARGES


@<TRIPOS>ATOM
      1 C1         -0.2861    8.1736   -6.4592 C.ar      1 NCZ        -0.1709 
      2 C6          0.4819    9.3740   -6.5362 C.ar      1 NCZ         0.0726 
      3 C5          1.3835    9.5220   -7.6416 C.ar      1 NCZ        -0.0959 
      4 C7          2.1580   10.7094   -7.7334 C.ar      1 NCZ        -0.0424 
      5 C8          2.0808   11.6888   -6.7537 C.ar      1 NCZ        -0.2379 
      6 C9          1.2166   11.5538   -5.6768 C.ar      1 NCZ         0.2611 
      7 C10         0.3857   10.4269   -5.5589 C.ar      1 NCZ        -0.3060 
      8 C11        -0.6219   10.3777   -4.4542 C.2       1 NCZ         0.6421 
      9 O3         -1.8355   10.3686   -4.6558 O.2       1 NCZ        -0.4040 
     10 O4         -0.1027   10.2841   -3.2099 O.3       1 NCZ        -0.3226 
     11 C12         0.6583    9.1453   -2.7761 C.3       1 NCZ         0.0648 
     12 C13        -0.2417    7.9054   -2.5909 C.3       1 NCZ         0.2089 
     13 C14        -0.2420    7.6771   -1.0973 C.2       1 NCZ        -0.2040 
     14 C15         0.5580    8.5418   -0.4536 C.2       1 NCZ        -0.2040 
     15 C16         1.2646    9.4830   -1.4034 C.3       1 NCZ         0.2089 
     16 O6          2.6666    9.3418   -1.3569 O.3       1 NCZ        -0.6331 
     17 O5          0.1580    6.7578   -3.3015 O.3       1 NCZ        -0.6331 
     18 O2          1.1971   12.5764   -4.7604 O.3       1 NCZ        -0.5507 
     19 C4          1.4819    8.4718   -8.6070 C.ar      1 NCZ        -0.0224 
     20 C3          0.6947    7.3303   -8.4832 C.ar      1 NCZ        -0.1967 
     21 C2         -0.1976    7.1772   -7.4218 C.ar      1 NCZ         0.1767 
     22 O1         -1.0020    6.0700   -7.2509 O.3       1 NCZ        -0.3596 
     23 C17        -1.4582    5.3992   -8.4195 C.3       1 NCZ         0.1374 
     24 C18         2.4546    8.5832   -9.7749 C.3       1 NCZ        -0.1312 
     25 H1         -0.9684    8.0177   -5.6381 H         1 NCZ         0.1606 
     26 H7          2.8440   10.8499   -8.5551 H         1 NCZ         0.1348 
     27 H8          2.7041   12.5668   -6.8417 H         1 NCZ         0.1341 
     28 H12         1.4452    8.9649   -3.5120 H         1 NCZ         0.1032 
     29 H13        -1.2438    8.1432   -2.9334 H         1 NCZ         0.0836 
     30 H14        -0.8317    6.8962   -0.6404 H         1 NCZ         0.1528 
     31 H15         0.7313    8.5750    0.6116 H         1 NCZ         0.1528 
     32 H16         1.0277   10.5098   -1.1186 H         1 NCZ         0.0836 
     33 H6          2.8839    8.3970   -1.5141 H         1 NCZ         0.4243 
     34 H5          1.0637    6.5418   -3.0027 H         1 NCZ         0.4243 
     35 H2          1.8682   13.2397   -4.9334 H         1 NCZ         0.4084 
     36 H3          0.7977    6.5503   -9.2211 H         1 NCZ         0.1346 
     37 H171       -2.1479    4.6052   -8.1352 H         1 NCZ         0.0417 
     38 H172       -0.6420    4.9418   -8.9748 H         1 NCZ         0.0417 
     39 H173       -1.9950    6.0806   -9.0816 H         1 NCZ         0.0417 
     40 H181        2.4263    7.7005  -10.4148 H         1 NCZ         0.0733 
     41 H182        3.4765    8.6897   -9.4089 H         1 NCZ         0.0733 
     42 H183        2.2128    9.4476  -10.3937 H         1 NCZ         0.0733 
@<TRIPOS>BOND
     1    1    2 ar   
     2    1   21 ar   
     3    1   25 1    
     4    2    3 ar   
     5    2    7 ar   
     6    3    4 ar   
     7    3   19 ar   
     8    4    5 ar   
     9    4   26 1    
    10    5    6 ar   
    11    5   27 1    
    12    6    7 ar   
    13    6   18 1    
    14    7    8 1    
    15    8    9 2    
    16    8   10 1    
    17   10   11 1    
    18   11   12 1    
    19   11   15 1    
    20   11   28 1    
    21   12   13 1    
    22   12   17 1    
    23   12   29 1    
    24   13   14 2    
    25   13   30 1    
    26   14   15 1    
    27   14   31 1    
    28   15   16 1    
    29   15   32 1    
    30   16   33 1    
    31   17   34 1    
    32   18   35 1    
    33   19   20 ar   
    34   19   24 1    
    35   20   21 ar   
    36   20   36 1    
    37   21   22 1    
    38   22   23 1    
    39   23   37 1    
    40   23   38 1    
    41   23   39 1    
    42   24   40 1    
    43   24   41 1    
    44   24   42 1    
@<TRIPOS>SUBSTRUCTURE
     1 NCZ         1 GROUP             0       ****    0 ROOT    
@<TRIPOS>MOLECULE
NCZ
42   44    1
SMALL
USER_CHARGES


@<TRIPOS>ATOM
      1 C1          0.2498   11.0084    2.4833 C.ar      1 NCZ        -0.1709 
      2 C6          0.1580    9.5959    2.2667 C.ar      1 NCZ         0.0726 
      3 C5          0.5580    8.7457    3.3588 C.ar      1 NCZ        -0.0959 
      4 C7          0.4815    7.3418    3.1919 C.ar      1 NCZ        -0.0424 
      5 C8         -0.0502    6.7972    2.0397 C.ar      1 NCZ        -0.2379 
      6 C9         -0.4803    7.5957    0.9937 C.ar      1 NCZ         0.2611 
      7 C10        -0.3692    9.0019    1.0488 C.ar      1 NCZ        -0.3060 
      8 C11        -0.8810    9.8567   -0.0971 C.2       1 NCZ         0.6421 
      9 O3         -1.4420   10.9378    0.0668 O.2       1 NCZ        -0.4040 
     10 O4         -0.7855    9.3602   -1.3566 O.3       1 NCZ        -0.3226 
     11 C12         0.3987    8.8152   -1.9391 C.3       1 NCZ         0.0648 
     12 C13         1.4247    9.9087   -2.2372 C.3       1 NCZ         0.2089 
     13 C14         1.7217    9.7419   -3.7086 C.2       1 NCZ        -0.2040 
     14 C15         0.9578    8.7881   -4.2701 C.2       1 NCZ        -0.2040 
     15 C16         0.0250    8.1418   -3.2691 C.3       1 NCZ         0.2089 
     16 O6          0.1580    6.7358   -3.2331 O.3       1 NCZ        -0.6331 
     17 O5          2.5581    9.7418   -1.4302 O.3       1 NCZ        -0.6331 
     18 O2         -1.0620    6.9281   -0.0544 O.3       1 NCZ        -0.5507 
     19 C4          0.9580    9.3295    4.6020 C.ar      1 NCZ        -0.0224 
     20 C3          0.9847   10.7125    4.7504 C.ar      1 NCZ        -0.1967 
     21 C2          0.6432   11.5596    3.6965 C.ar      1 NCZ         0.1767 
     22 O1          0.6634   12.9391    3.7652 O.3       1 NCZ        -0.3596 
     23 C17         1.1042   13.5719    4.9614 C.3       1 NCZ         0.1374 
     24 C18         1.3487    8.4468    5.7822 C.3       1 NCZ        -0.1312 
     25 H1          0.0114   11.7074    1.7008 H         1 NCZ         0.1606 
     26 H7          0.7818    6.6745    3.9864 H         1 NCZ         0.1348 
     27 H8         -0.1475    5.7234    1.9748 H         1 NCZ         0.1341 
     28 H12         0.8214    8.0716   -1.2600 H         1 NCZ         0.1032 
     29 H13         1.0074   10.9038   -2.0735 H         1 NCZ         0.0836 
     30 H14         2.4616   10.3484   -4.2086 H         1 NCZ         0.1528 
     31 H15         0.9737    8.4886   -5.3071 H         1 NCZ         0.1528 
     32 H16        -1.0006    8.3844   -3.5516 H         1 NCZ         0.0836 
     33 H6          1.0689    6.5418   -2.9334 H         1 NCZ         0.4243 
     34 H5          2.8598    8.8211   -1.5288 H         1 NCZ         0.4243 
     35 H2         -0.8532    5.9911   -0.0496 H         1 NCZ         0.4084 
     36 H3          1.2883   11.1212    5.7014 H         1 NCZ         0.1346 
     37 H171        1.0725   14.6531    4.8278 H         1 NCZ         0.0417 
     38 H172        2.1332   13.3000    5.2027 H         1 NCZ         0.0417 
     39 H173        0.4586   13.3258    5.8060 H         1 NCZ         0.0417 
     40 H181        1.6663    9.0328    6.6452 H         1 NCZ         0.0733 
     41 H182        2.1744    7.7878    5.5118 H         1 NCZ         0.0733 
     42 H183        0.5024    7.8323    6.0925 H         1 NCZ         0.0733 
@<TRIPOS>BOND
     1    1    2 ar   
     2    1   21 ar   
     3    1   25 1    
     4    2    3 ar   
     5    2    7 ar   
     6    3    4 ar   
     7    3   19 ar   
     8    4    5 ar   
     9    4   26 1    
    10    5    6 ar   
    11    5   27 1    
    12    6    7 ar   
    13    6   18 1    
    14    7    8 1    
    15    8    9 2    
    16    8   10 1    
    17   10   11 1    
    18   11   12 1    
    19   11   15 1    
    20   11   28 1    
    21   12   13 1    
    22   12   17 1    
    23   12   29 1    
    24   13   14 2    
    25   13   30 1    
    26   14   15 1    
    27   14   31 1    
    28   15   16 1    
    29   15   32 1    
    30   16   33 1    
    31   17   34 1    
    32   18   35 1    
    33   19   20 ar   
    34   19   24 1    
    35   20   21 ar   
    36   20   36 1    
    37   21   22 1    
    38   22   23 1    
    39   23   37 1    
    40   23   38 1    
    41   23   39 1    
    42   24   40 1    
    43   24   41 1    
    44   24   42 1    
@<TRIPOS>SUBSTRUCTURE
     1 NCZ         1 GROUP             0       ****    0 ROOT    
@<TRIPOS>MOLECULE
NCZ
42   44    1
SMALL
USER_CHARGES


@<TRIPOS>ATOM
      1 C1         -1.0177   12.5168   -3.7176 C.ar      1 NCZ        -0.1709 
      2 C6         -0.2948   11.4432   -3.1104 C.ar      1 NCZ         0.0726 
      3 C5          0.4227   11.7367   -1.9004 C.ar      1 NCZ        -0.0959 
      4 C7          1.1670   10.7031   -1.2813 C.ar      1 NCZ        -0.0424 
      5 C8          1.1918    9.4297   -1.8165 C.ar      1 NCZ        -0.2379 
      6 C9          0.4921    9.1214   -2.9706 C.ar      1 NCZ         0.2611 
      7 C10        -0.2629   10.0987   -3.6528 C.ar      1 NCZ        -0.3060 
      8 C11        -1.0444    9.7011   -4.8820 C.2       1 NCZ         0.6421 
      9 O3         -2.1918   10.0917   -5.1123 O.2       1 NCZ        -0.4040 
     10 O4         -0.3671    8.8681   -5.7161 O.3       1 NCZ        -0.3226 
     11 C12        -1.0174    8.1562   -6.7776 C.3       1 NCZ         0.0648 
     12 C13        -0.1780    6.9272   -7.1452 C.3       1 NCZ         0.2089 
     13 C14        -0.3025    6.8711   -8.6486 C.2       1 NCZ        -0.2040 
     14 C15        -0.8650    7.9872   -9.1458 C.2       1 NCZ        -0.2040 
     15 C16        -1.2201    8.9768   -8.0595 C.3       1 NCZ         0.2089 
     16 O6         -2.5391    9.4602   -8.2065 O.3       1 NCZ        -0.6331 
     17 O5         -0.6427    5.7428   -6.5329 O.3       1 NCZ        -0.6331 
     18 O2          0.5579    7.8116   -3.3742 O.3       1 NCZ        -0.5507 
     19 C4          0.3660   13.0550   -1.3480 C.ar      1 NCZ        -0.0224 
     20 C3         -0.3723   14.0474   -1.9824 C.ar      1 NCZ        -0.1967 
     21 C2         -1.0692   13.7958   -3.1533 C.ar      1 NCZ         0.1767 
     22 O1         -1.7879   14.8535   -3.6782 O.3       1 NCZ        -0.3596 
     23 C17        -2.6487   14.6262   -4.7893 C.3       1 NCZ         0.1374 
     24 C18         1.0929   13.3847   -0.0489 C.3       1 NCZ        -0.1312 
     25 H1         -1.5457   12.3383   -4.6374 H         1 NCZ         0.1606 
     26 H7          1.7245   10.8901   -0.3753 H         1 NCZ         0.1348 
     27 H8          1.7616    8.6561   -1.3170 H         1 NCZ         0.1341 
     28 H12        -1.9850    7.8156   -6.4030 H         1 NCZ         0.1032 
     29 H13         0.8704    7.0819   -6.8845 H         1 NCZ         0.0836 
     30 H14         0.0677    6.0322   -9.2204 H         1 NCZ         0.1528 
     31 H15        -1.0292    8.2062  -10.1907 H         1 NCZ         0.1528 
     32 H16        -0.5157    9.8097   -8.0953 H         1 NCZ         0.0836 
     33 H6         -3.1490    8.7208   -8.1296 H         1 NCZ         0.4243 
     34 H5         -1.5448    5.5839   -6.8248 H         1 NCZ         0.4243 
     35 H2          1.2906    7.3425   -2.9343 H         1 NCZ         0.4084 
     36 H3         -0.4189   15.0391   -1.5564 H         1 NCZ         0.1346 
     37 H171       -3.1829   15.5462   -5.0242 H         1 NCZ         0.0417 
     38 H172       -3.3957   13.8610   -4.5671 H         1 NCZ         0.0417 
     39 H173       -2.0875   14.3326   -5.6776 H         1 NCZ         0.0417 
     40 H181        0.9840   14.4347    0.2257 H         1 NCZ         0.0733 
     41 H182        2.1588   13.1774   -0.1388 H         1 NCZ         0.0733 
     42 H183        0.6954   12.7861    0.7709 H         1 NCZ         0.0733 
@<TRIPOS>BOND
     1    1    2 ar   
     2    1   21 ar   
     3    1   25 1    
     4    2    3 ar   
     5    2    7 ar   
     6    3    4 ar   
     7    3   19 ar   
     8    4    5 ar   
     9    4   26 1    
    10    5    6 ar   
    11    5   27 1    
    12    6    7 ar   
    13    6   18 1    
    14    7    8 1    
    15    8    9 2    
    16    8   10 1    
    17   10   11 1    
    18   11   12 1    
    19   11   15 1    
    20   11   28 1    
    21   12   13 1    
    22   12   17 1    
    23   12   29 1    
    24   13   14 2    
    25   13   30 1    
    26   14   15 1    
    27   14   31 1    
    28   15   16 1    
    29   15   32 1    
    30   16   33 1    
    31   17   34 1    
    32   18   35 1    
    33   19   20 ar   
    34   19   24 1    
    35   20   21 ar   
    36   20   36 1    
    37   21   22 1    
    38   22   23 1    
    39   23   37 1    
    40   23   38 1    
    41   23   39 1    
    42   24   40 1    
    43   24   41 1    
    44   24   42 1    
@<TRIPOS>SUBSTRUCTURE
     1 NCZ         1 GROUP             0       ****    0 ROOT    
@<TRIPOS>MOLECULE
NCZ
42   44    1
SMALL
USER_CHARGES


@<TRIPOS>ATOM
      1 C1          1.9963   13.3781    1.8194 C.ar      1 NCZ        -0.1709 
      2 C6          1.1089   13.8807    0.8205 C.ar      1 NCZ         0.0726 
      3 C5          0.8410   15.2910    0.8149 C.ar      1 NCZ        -0.0959 
      4 C7         -0.0181   15.8173   -0.1855 C.ar      1 NCZ        -0.0424 
      5 C8         -0.5970   14.9922   -1.1356 C.ar      1 NCZ        -0.2379 
      6 C9         -0.3567   13.6279   -1.1345 C.ar      1 NCZ         0.2611 
      7 C10         0.4884   13.0400   -0.1736 C.ar      1 NCZ        -0.3060 
      8 C11         0.7308   11.5628   -0.2305 C.2       1 NCZ         0.6421 
      9 O3          0.5583   10.8035    0.7226 O.2       1 NCZ        -0.4040 
     10 O4          1.2249   11.1917   -1.4405 O.3       1 NCZ        -0.3226 
     11 C12         1.5542    9.8414   -1.7926 C.3       1 NCZ         0.0648 
     12 C13         2.1052    9.8695   -3.2286 C.3       1 NCZ         0.2089 
     13 C14         1.0969    9.0649   -4.0221 C.2       1 NCZ        -0.2040 
     14 C15         0.1573    8.5159   -3.2323 C.2       1 NCZ        -0.2040 
     15 C16         0.3510    8.8771   -1.7779 C.3       1 NCZ         0.2089 
     16 O6          0.5579    7.7417   -0.9624 O.3       1 NCZ        -0.6331 
     17 O5          3.4051    9.3422   -3.3303 O.3       1 NCZ        -0.6331 
     18 O2         -0.9994   12.8935   -2.1018 O.3       1 NCZ        -0.5507 
     19 C4          1.4455   16.1216    1.8108 C.ar      1 NCZ        -0.0224 
     20 C3          2.2989   15.5670    2.7589 C.ar      1 NCZ        -0.1967 
     21 C2          2.5860   14.2126    2.7745 C.ar      1 NCZ         0.1767 
     22 O1          3.4586   13.7859    3.7563 O.3       1 NCZ        -0.3596 
     23 C17         3.8672   12.4267    3.7854 C.3       1 NCZ         0.1374 
     24 C18         1.1658   17.6202    1.8522 C.3       1 NCZ        -0.1312 
     25 H1          2.2167   12.3239    1.8331 H         1 NCZ         0.1606 
     26 H7         -0.2308   16.8760   -0.2140 H         1 NCZ         0.1348 
     27 H8         -1.2519   15.4264   -1.8744 H         1 NCZ         0.1341 
     28 H12         2.3222    9.5192   -1.0877 H         1 NCZ         0.1032 
     29 H13         2.1283   10.8893   -3.6173 H         1 NCZ         0.0836 
     30 H14         1.1746    8.9575   -5.0936 H         1 NCZ         0.1528 
     31 H15        -0.6607    7.8882   -3.5512 H         1 NCZ         0.1528 
     32 H16        -0.5478    9.3927   -1.4328 H         1 NCZ         0.0836 
     33 H6          1.4257    7.3365   -1.1699 H         1 NCZ         0.4243 
     34 H5          3.3579    8.4039   -3.0349 H         1 NCZ         0.4243 
     35 H2         -1.4705   13.4399   -2.7336 H         1 NCZ         0.4084 
     36 H3          2.7592   16.1971    3.5061 H         1 NCZ         0.1346 
     37 H171        4.5589   12.2794    4.6114 H         1 NCZ         0.0417 
     38 H172        4.3895   12.1421    2.8718 H         1 NCZ         0.0417 
     39 H173        3.0238   11.7535    3.9455 H         1 NCZ         0.0417 
     40 H181        1.6870   18.1113    2.6768 H         1 NCZ         0.0733 
     41 H182        0.0995   17.8031    1.9870 H         1 NCZ         0.0733 
     42 H183        1.4911   18.0971    0.9272 H         1 NCZ         0.0733 
@<TRIPOS>BOND
     1    1    2 ar   
     2    1   21 ar   
     3    1   25 1    
     4    2    3 ar   
     5    2    7 ar   
     6    3    4 ar   
     7    3   19 ar   
     8    4    5 ar   
     9    4   26 1    
    10    5    6 ar   
    11    5   27 1    
    12    6    7 ar   
    13    6   18 1    
    14    7    8 1    
    15    8    9 2    
    16    8   10 1    
    17   10   11 1    
    18   11   12 1    
    19   11   15 1    
    20   11   28 1    
    21   12   13 1    
    22   12   17 1    
    23   12   29 1    
    24   13   14 2    
    25   13   30 1    
    26   14   15 1    
    27   14   31 1    
    28   15   16 1    
    29   15   32 1    
    30   16   33 1    
    31   17   34 1    
    32   18   35 1    
    33   19   20 ar   
    34   19   24 1    
    35   20   21 ar   
    36   20   36 1    
    37   21   22 1    
    38   22   23 1    
    39   23   37 1    
    40   23   38 1    
    41   23   39 1    
    42   24   40 1    
    43   24   41 1    
    44   24   42 1    
@<TRIPOS>SUBSTRUCTURE
     1 NCZ         1 GROUP             0       ****    0 ROOT    
@<TRIPOS>MOLECULE
NCZ
42   44    1
SMALL
USER_CHARGES


@<TRIPOS>ATOM
      1 C1         -0.1020   13.6897    2.9510 C.ar      1 NCZ        -0.1709 
      2 C6         -0.0214   12.5409    3.7969 C.ar      1 NCZ         0.0726 
      3 C5         -0.1162   12.7528    5.2137 C.ar      1 NCZ        -0.0959 
      4 C7         -0.0129   11.6331    6.0789 C.ar      1 NCZ        -0.0424 
      5 C8          0.2069   10.3623    5.5759 C.ar      1 NCZ        -0.2379 
      6 C9          0.3046   10.1429    4.2116 C.ar      1 NCZ         0.2611 
      7 C10         0.1576   11.1991    3.2918 C.ar      1 NCZ        -0.3060 
      8 C11         0.1907   10.9006    1.8196 C.2       1 NCZ         0.6421 
      9 O3          0.9112   11.5013    1.0197 O.2       1 NCZ        -0.4040 
     10 O4         -0.7225    9.9550    1.4661 O.3       1 NCZ        -0.3226 
     11 C12        -0.9369    9.4865    0.1244 C.3       1 NCZ         0.0648 
     12 C13         0.2461    8.7448   -0.5222 C.3       1 NCZ         0.2089 
     13 C14         0.1281    9.1649   -1.9706 C.2       1 NCZ        -0.2040 
     14 C15        -0.7834   10.1414   -2.1503 C.2       1 NCZ        -0.2040 
     15 C16        -1.4348   10.5643   -0.8504 C.3       1 NCZ         0.2089 
     16 O6         -2.8446   10.6152   -0.9334 O.3       1 NCZ        -0.6331 
     17 O5          0.1581    7.3423   -0.3700 O.3       1 NCZ        -0.6331 
     18 O2          0.5581    8.8533    3.8133 O.3       1 NCZ        -0.5507 
     19 C4         -0.3034   14.0794    5.7139 C.ar      1 NCZ        -0.0224 
     20 C3         -0.3534   15.1564    4.8350 C.ar      1 NCZ        -0.1967 
     21 C2         -0.2324   14.9833    3.4652 C.ar      1 NCZ         0.1767 
     22 O1         -0.2433   16.1319    2.6980 O.3       1 NCZ        -0.3596 
     23 C17         0.0808   16.0470    1.3135 C.3       1 NCZ         0.1374 
     24 C18        -0.4268   14.3357    7.2112 C.3       1 NCZ        -0.1312 
     25 H1         -0.0395   13.5622    1.8844 H         1 NCZ         0.1606 
     26 H7         -0.0806   11.7615    7.1487 H         1 NCZ         0.1348 
     27 H8          0.3058    9.5361    6.2653 H         1 NCZ         0.1341 
     28 H12        -1.7384    8.7559    0.2457 H         1 NCZ         0.1032 
     29 H13         1.2030    9.0928   -0.1331 H         1 NCZ         0.0836 
     30 H14         0.7509    8.7146   -2.7321 H         1 NCZ         0.1528 
     31 H15        -1.0261   10.6194   -3.0876 H         1 NCZ         0.1528 
     32 H16        -1.0644   11.5552   -0.5877 H         1 NCZ         0.0836 
     33 H6         -3.2124   10.5757   -0.0387 H         1 NCZ         0.4243 
     34 H5          1.0354    6.9608   -0.5654 H         1 NCZ         0.4243 
     35 H2          0.6225    8.2324    4.5420 H         1 NCZ         0.4084 
     36 H3         -0.4703   16.1592    5.2194 H         1 NCZ         0.1346 
     37 H171        0.0725   17.0474    0.8811 H         1 NCZ         0.0417 
     38 H172       -0.6424   15.4465    0.7614 H         1 NCZ         0.0417 
     39 H173        1.0780   15.6302    1.1619 H         1 NCZ         0.0417 
     40 H181       -0.5855   15.3917    7.4326 H         1 NCZ         0.0733 
     41 H182        0.4817   14.0244    7.7279 H         1 NCZ         0.0733 
     42 H183       -1.2706   13.7837    7.6263 H         1 NCZ         0.0733 
@<TRIPOS>BOND
     1    1    2 ar   
     2    1   21 ar   
     3    1   25 1    
     4    2    3 ar   
     5    2    7 ar   
     6    3    4 ar   
     7    3   19 ar   
     8    4    5 ar   
     9    4   26 1    
    10    5    6 ar   
    11    5   27 1    
    12    6    7 ar   
    13    6   18 1    
    14    7    8 1    
    15    8    9 2    
    16    8   10 1    
    17   10   11 1    
    18   11   12 1    
    19   11   15 1    
    20   11   28 1    
    21   12   13 1    
    22   12   17 1    
    23   12   29 1    
    24   13   14 2    
    25   13   30 1    
    26   14   15 1    
    27   14   31 1    
    28   15   16 1    
    29   15   32 1    
    30   16   33 1    
    31   17   34 1    
    32   18   35 1    
    33   19   20 ar   
    34   19   24 1    
    35   20   21 ar   
    36   20   36 1    
    37   21   22 1    
    38   22   23 1    
    39   23   37 1    
    40   23   38 1    
    41   23   39 1    
    42   24   40 1    
    43   24   41 1    
    44   24   42 1    
@<TRIPOS>SUBSTRUCTURE
     1 NCZ         1 GROUP             0       ****    0 ROOT    
@<TRIPOS>MOLECULE
NCZ
42   44    1
SMALL
USER_CHARGES


@<TRIPOS>ATOM
      1 C1          0.5865   10.1597   -2.9473 C.ar      1 NCZ        -0.1709 
      2 C6          0.1518    8.8119   -2.7574 C.ar      1 NCZ         0.0726 
      3 C5          0.1122    8.3116   -1.4135 C.ar      1 NCZ        -0.0959 
      4 C7         -0.2509    6.9574   -1.2022 C.ar      1 NCZ        -0.0424 
      5 C8         -0.5982    6.1390   -2.2629 C.ar      1 NCZ        -0.2379 
      6 C9         -0.6048    6.6168   -3.5641 C.ar      1 NCZ         0.2611 
      7 C10        -0.2428    7.9472   -3.8464 C.ar      1 NCZ        -0.3060 
      8 C11        -0.3164    8.4373   -5.2578 C.2       1 NCZ         0.6421 
      9 O3         -0.8965    9.4785   -5.5759 O.2       1 NCZ        -0.4040 
     10 O4          0.3550    7.6366   -6.1296 O.3       1 NCZ        -0.3226 
     11 C12         0.3075    7.8581   -7.5437 C.3       1 NCZ         0.0648 
     12 C13        -1.0457    7.4437   -8.1452 C.3       1 NCZ         0.2089 
     13 C14        -0.6479    6.7780   -9.4427 C.2       1 NCZ        -0.2040 
     14 C15         0.6750    6.5461   -9.4959 C.2       1 NCZ        -0.2040 
     15 C16         1.3793    7.0144   -8.2421 C.3       1 NCZ         0.2089 
     16 O6          2.5546    7.7395   -8.5366 O.3       1 NCZ        -0.6331 
     17 O5         -1.9089    8.5408   -8.3550 O.3       1 NCZ        -0.6331 
     18 O2         -1.0418    5.7417   -4.5299 O.3       1 NCZ        -0.5507 
     19 C4          0.4434    9.1812   -0.3297 C.ar      1 NCZ        -0.0224 
     20 C3          0.8385   10.4915   -0.5810 C.ar      1 NCZ        -0.1967 
     21 C2          0.9316   10.9867   -1.8730 C.ar      1 NCZ         0.1767 
     22 O1          1.3564   12.2953   -2.0020 O.3       1 NCZ        -0.3596 
     23 C17         1.6659   12.8026   -3.2955 C.3       1 NCZ         0.1374 
     24 C18         0.3712    8.6794    1.1077 C.3       1 NCZ        -0.1312 
     25 H1          0.6550   10.5480   -3.9488 H         1 NCZ         0.1606 
     26 H7         -0.2444    6.5387   -0.2072 H         1 NCZ         0.1348 
     27 H8         -0.8677    5.1128   -2.0583 H         1 NCZ         0.1341 
     28 H12         0.4933    8.9174   -7.7360 H         1 NCZ         0.1032 
     29 H13        -1.5354    6.7058   -7.5069 H         1 NCZ         0.0836 
     30 H14        -1.3756    6.5062  -10.1934 H         1 NCZ         0.1528 
     31 H15         1.2081    6.0483  -10.2939 H         1 NCZ         0.1528 
     32 H16         1.6354    6.1419   -7.6370 H         1 NCZ         0.0836 
     33 H6          2.3219    8.4718   -9.1133 H         1 NCZ         0.4243 
     34 H5         -2.8166    8.2285   -8.2663 H         1 NCZ         0.4243 
     35 H2         -1.1927    4.8683   -4.1482 H         1 NCZ         0.4084 
     36 H3          1.1035   11.1387    0.2415 H         1 NCZ         0.1346 
     37 H171        2.0546   13.8167   -3.2002 H         1 NCZ         0.0417 
     38 H172        0.7795   12.8498   -3.9307 H         1 NCZ         0.0417 
     39 H173        2.4329   12.2010   -3.7876 H         1 NCZ         0.0417 
     40 H181        0.5714    9.4728    1.8271 H         1 NCZ         0.0733 
     41 H182        1.1031    7.8862    1.2678 H         1 NCZ         0.0733 
     42 H183       -0.6221    8.2873    1.3262 H         1 NCZ         0.0733 
@<TRIPOS>BOND
     1    1    2 ar   
     2    1   21 ar   
     3    1   25 1    
     4    2    3 ar   
     5    2    7 ar   
     6    3    4 ar   
     7    3   19 ar   
     8    4    5 ar   
     9    4   26 1    
    10    5    6 ar   
    11    5   27 1    
    12    6    7 ar   
    13    6   18 1    
    14    7    8 1    
    15    8    9 2    
    16    8   10 1    
    17   10   11 1    
    18   11   12 1    
    19   11   15 1    
    20   11   28 1    
    21   12   13 1    
    22   12   17 1    
    23   12   29 1    
    24   13   14 2    
    25   13   30 1    
    26   14   15 1    
    27   14   31 1    
    28   15   16 1    
    29   15   32 1    
    30   16   33 1    
    31   17   34 1    
    32   18   35 1    
    33   19   20 ar   
    34   19   24 1    
    35   20   21 ar   
    36   20   36 1    
    37   21   22 1    
    38   22   23 1    
    39   23   37 1    
    40   23   38 1    
    41   23   39 1    
    42   24   40 1    
    43   24   41 1    
    44   24   42 1    
@<TRIPOS>SUBSTRUCTURE
     1 NCZ         1 GROUP             0       ****    0 ROOT    
@<TRIPOS>MOLECULE
NCZ
42   44    1
SMALL
USER_CHARGES


@<TRIPOS>ATOM
      1 C1         -0.0652   11.9092    4.3293 C.ar      1 NCZ        -0.1709 
      2 C6          0.3238   10.5418    4.4755 C.ar      1 NCZ         0.0726 
      3 C5          0.5713   10.0604    5.8053 C.ar      1 NCZ        -0.0959 
      4 C7          0.9446    8.7029    5.9819 C.ar      1 NCZ        -0.0424 
      5 C8          1.0706    7.8507    4.8990 C.ar      1 NCZ        -0.2379 
      6 C9          0.8380    8.2996    3.6093 C.ar      1 NCZ         0.2611 
      7 C10         0.4590    9.6363    3.3576 C.ar      1 NCZ        -0.3060 
      8 C11         0.1580   10.0611    1.9392 C.2       1 NCZ         0.6421 
      9 O3          0.5977   11.0915    1.4280 O.2       1 NCZ        -0.4040 
     10 O4         -0.6957    9.2096    1.3154 O.3       1 NCZ        -0.3226 
     11 C12        -0.9551    9.1872   -0.0965 C.3       1 NCZ         0.0648 
     12 C13         0.2374    8.6477   -0.9084 C.3       1 NCZ         0.2089 
     13 C14         0.1652    9.4632   -2.1784 C.2       1 NCZ        -0.2040 
     14 C15        -0.7474   10.4501   -2.1048 C.2       1 NCZ        -0.2040 
     15 C16        -1.4612   10.4830   -0.7705 C.3       1 NCZ         0.2089 
     16 O6         -2.8635   10.5419   -0.9334 O.3       1 NCZ        -0.6331 
     17 O5          0.1580    7.2623   -1.1679 O.3       1 NCZ        -0.6331 
     18 O2          1.0129    7.3838    2.6022 O.3       1 NCZ        -0.5507 
     19 C4          0.4270   10.9533    6.9125 C.ar      1 NCZ        -0.0224 
     20 C3          0.0506   12.2756    6.6995 C.ar      1 NCZ        -0.1967 
     21 C2         -0.1907   12.7672    5.4262 C.ar      1 NCZ         0.1767 
     22 O1         -0.5496   14.0984    5.3408 O.3       1 NCZ        -0.3596 
     23 C17        -0.6476   14.7126    4.0604 C.3       1 NCZ         0.1374 
     24 C18         0.6798   10.4719    8.3362 C.3       1 NCZ        -0.1312 
     25 H1         -0.2679   12.2941    3.3453 H         1 NCZ         0.1606 
     26 H7          1.1327    8.3113    6.9701 H         1 NCZ         0.1348 
     27 H8          1.3580    6.8225    5.0713 H         1 NCZ         0.1341 
     28 H12        -1.7539    8.4467   -0.1334 H         1 NCZ         0.1032 
     29 H13         1.1852    8.8587   -0.4100 H         1 NCZ         0.0836 
     30 H14         0.8177    9.2517   -3.0137 H         1 NCZ         0.1528 
     31 H15        -0.9597   11.1749   -2.8765 H         1 NCZ         0.1528 
     32 H16        -1.1457   11.3776   -0.2372 H         1 NCZ         0.0836 
     33 H6         -3.2746   10.5418   -0.0561 H         1 NCZ         0.4243 
     34 H5          1.0671    6.9418   -1.3306 H         1 NCZ         0.4243 
     35 H2          1.3574    6.5386    2.8987 H         1 NCZ         0.4084 
     36 H3         -0.0540   12.9460    7.5400 H         1 NCZ         0.1346 
     37 H171       -0.8874   15.7687    4.1825 H         1 NCZ         0.0417 
     38 H172       -1.4420   14.2632    3.4666 H         1 NCZ         0.0417 
     39 H173        0.2922   14.6481    3.5096 H         1 NCZ         0.0417 
     40 H181        0.5317   11.2671    9.0679 H         1 NCZ         0.0733 
     41 H182        1.7043   10.1140    8.4423 H         1 NCZ         0.0733 
     42 H183       -0.0018    9.6596    8.5909 H         1 NCZ         0.0733 
@<TRIPOS>BOND
     1    1    2 ar   
     2    1   21 ar   
     3    1   25 1    
     4    2    3 ar   
     5    2    7 ar   
     6    3    4 ar   
     7    3   19 ar   
     8    4    5 ar   
     9    4   26 1    
    10    5    6 ar   
    11    5   27 1    
    12    6    7 ar   
    13    6   18 1    
    14    7    8 1    
    15    8    9 2    
    16    8   10 1    
    17   10   11 1    
    18   11   12 1    
    19   11   15 1    
    20   11   28 1    
    21   12   13 1    
    22   12   17 1    
    23   12   29 1    
    24   13   14 2    
    25   13   30 1    
    26   14   15 1    
    27   14   31 1    
    28   15   16 1    
    29   15   32 1    
    30   16   33 1    
    31   17   34 1    
    32   18   35 1    
    33   19   20 ar   
    34   19   24 1    
    35   20   21 ar   
    36   20   36 1    
    37   21   22 1    
    38   22   23 1    
    39   23   37 1    
    40   23   38 1    
    41   23   39 1    
    42   24   40 1    
    43   24   41 1    
    44   24   42 1    
@<TRIPOS>SUBSTRUCTURE
     1 NCZ         1 GROUP             0       ****    0 ROOT    
@<TRIPOS>MOLECULE
NCZ
42   44    1
SMALL
USER_CHARGES


@<TRIPOS>ATOM
      1 C1          0.5577    9.4346    4.7194 C.ar      1 NCZ        -0.1709 
      2 C6          0.5976   10.7835    4.2311 C.ar      1 NCZ         0.0726 
      3 C5          0.9900   11.7898    5.1828 C.ar      1 NCZ        -0.0959 
      4 C7          1.0036   13.1451    4.7802 C.ar      1 NCZ        -0.0424 
      5 C8          0.6550   13.5059    3.4965 C.ar      1 NCZ        -0.2379 
      6 C9          0.3073   12.5574    2.5525 C.ar      1 NCZ         0.2611 
      7 C10         0.2754   11.1725    2.8571 C.ar      1 NCZ        -0.3060 
      8 C11        -0.0421   10.1444    1.7676 C.2       1 NCZ         0.6421 
      9 O3          0.1579    8.9363    1.8685 O.2       1 NCZ        -0.4040 
     10 O4         -0.5740   10.6751    0.6353 O.3       1 NCZ        -0.3226 
     11 C12        -0.9976    9.8926   -0.4889 C.3       1 NCZ         0.0648 
     12 C13         0.1223    9.1255   -1.2266 C.3       1 NCZ         0.2089 
     13 C14        -0.2420    9.3437   -2.6787 C.2       1 NCZ        -0.2040 
     14 C15        -1.2114   10.2655   -2.8273 C.2       1 NCZ        -0.2040 
     15 C16        -1.6382   10.8535   -1.4999 C.3       1 NCZ         0.2089 
     16 O6         -3.0419   10.9417   -1.3389 O.3       1 NCZ        -0.6331 
     17 O5          0.1584    7.7471   -0.9036 O.3       1 NCZ        -0.6331 
     18 O2          0.0261   13.0752    1.3144 O.3       1 NCZ        -0.5507 
     19 C4          1.3581   11.4131    6.5139 C.ar      1 NCZ        -0.0224 
     20 C3          1.3081   10.0809    6.9024 C.ar      1 NCZ        -0.1967 
     21 C2          0.8983    9.0889    6.0304 C.ar      1 NCZ         0.1767 
     22 O1          0.8506    7.8073    6.5448 O.3       1 NCZ        -0.3596 
     23 C17         0.3635    6.7404    5.7356 C.3       1 NCZ         0.1374 
     24 C18         1.8069   12.4603    7.5280 C.3       1 NCZ        -0.1312 
     25 H1          0.2246    8.6373    4.0871 H         1 NCZ         0.1606 
     26 H7          1.2843   13.9224    5.4749 H         1 NCZ         0.1348 
     27 H8          0.6722   14.5508    3.2215 H         1 NCZ         0.1341 
     28 H12        -1.7495    9.1867   -0.1292 H         1 NCZ         0.1032 
     29 H13         1.0966    9.5755   -1.0257 H         1 NCZ         0.0836 
     30 H14         0.2641    8.8085   -3.4696 H         1 NCZ         0.1528 
     31 H15        -1.6214   10.6098   -3.7654 H         1 NCZ         0.1528 
     32 H16        -1.2055   11.8537   -1.4240 H         1 NCZ         0.0836 
     33 H6         -3.4547   11.2242   -2.1613 H         1 NCZ         0.4243 
     34 H5          1.0449    7.3906   -1.0947 H         1 NCZ         0.4243 
     35 H2         -0.2427   12.3724    0.7135 H         1 NCZ         0.4084 
     36 H3          1.5762    9.8026    7.9109 H         1 NCZ         0.1346 
     37 H171        0.3090    5.8315    6.3348 H         1 NCZ         0.0417 
     38 H172        1.0279    6.5453    4.8924 H         1 NCZ         0.0417 
     39 H173       -0.6420    6.9372    5.3626 H         1 NCZ         0.0417 
     40 H181        2.0855   12.0105    8.4817 H         1 NCZ         0.0733 
     41 H182        1.0042   13.1729    7.7221 H         1 NCZ         0.0733 
     42 H183        2.6759   13.0040    7.1577 H         1 NCZ         0.0733 
@<TRIPOS>BOND
     1    1    2 ar   
     2    1   21 ar   
     3    1   25 1    
     4    2    3 ar   
     5    2    7 ar   
     6    3    4 ar   
     7    3   19 ar   
     8    4    5 ar   
     9    4   26 1    
    10    5    6 ar   
    11    5   27 1    
    12    6    7 ar   
    13    6   18 1    
    14    7    8 1    
    15    8    9 2    
    16    8   10 1    
    17   10   11 1    
    18   11   12 1    
    19   11   15 1    
    20   11   28 1    
    21   12   13 1    
    22   12   17 1    
    23   12   29 1    
    24   13   14 2    
    25   13   30 1    
    26   14   15 1    
    27   14   31 1    
    28   15   16 1    
    29   15   32 1    
    30   16   33 1    
    31   17   34 1    
    32   18   35 1    
    33   19   20 ar   
    34   19   24 1    
    35   20   21 ar   
    36   20   36 1    
    37   21   22 1    
    38   22   23 1    
    39   23   37 1    
    40   23   38 1    
    41   23   39 1    
    42   24   40 1    
    43   24   41 1    
    44   24   42 1    
@<TRIPOS>SUBSTRUCTURE
     1 NCZ         1 GROUP             0       ****    0 ROOT    
@<TRIPOS>MOLECULE
NCZ
42   44    1
SMALL
USER_CHARGES


@<TRIPOS>ATOM
      1 C1          0.2677   10.0888   -4.8758 C.ar      1 NCZ        -0.1709 
      2 C6         -0.0945    8.8180   -4.3352 C.ar      1 NCZ         0.0726 
      3 C5          0.1393    8.5968   -2.9388 C.ar      1 NCZ        -0.0959 
      4 C7         -0.1671    7.3238   -2.3916 C.ar      1 NCZ        -0.0424 
      5 C8         -0.6420    6.3017   -3.1928 C.ar      1 NCZ        -0.2379 
      6 C9         -0.9102    6.5103   -4.5358 C.ar      1 NCZ         0.2611 
      7 C10        -0.6531    7.7550   -5.1312 C.ar      1 NCZ        -0.3060 
      8 C11        -0.9241    7.9297   -6.5830 C.2       1 NCZ         0.6421 
      9 O3         -1.8167    8.6536   -7.0276 O.2       1 NCZ        -0.4040 
     10 O4         -0.0048    7.2767   -7.3302 O.3       1 NCZ        -0.3226 
     11 C12         0.0062    7.3556   -8.7571 C.3       1 NCZ         0.0648 
     12 C13        -1.0487    6.4553   -9.4154 C.3       1 NCZ         0.2089 
     13 C14        -0.3212    5.9840  -10.6552 C.2       1 NCZ        -0.2040 
     14 C15         1.0007    6.2230  -10.5784 C.2       1 NCZ        -0.2040 
     15 C16         1.3698    6.8894   -9.2723 C.3       1 NCZ         0.2089 
     16 O6          2.2901    7.9473   -9.4427 O.3       1 NCZ        -0.6331 
     17 O5         -2.2419    7.1404   -9.7352 O.3       1 NCZ        -0.6331 
     18 O2         -1.4419    5.4534   -5.2359 O.3       1 NCZ        -0.5507 
     19 C4          0.6999    9.6463   -2.1484 C.ar      1 NCZ        -0.0224 
     20 C3          1.0487   10.8588   -2.7368 C.ar      1 NCZ        -0.1967 
     21 C2          0.8524   11.0845   -4.1005 C.ar      1 NCZ         0.1767 
     22 O1          1.2074   12.2479   -4.7557 O.3       1 NCZ        -0.3596 
     23 C17         2.0231   13.2021   -4.0823 C.3       1 NCZ         0.1374 
     24 C18         0.9589    9.4297   -0.6634 C.3       1 NCZ        -0.1312 
     25 H1          0.1196   10.2904   -5.9255 H         1 NCZ         0.1606 
     26 H7          0.0381    7.1118   -1.3522 H         1 NCZ         0.1348 
     27 H8         -0.8293    5.3419   -2.7374 H         1 NCZ         0.1341 
     28 H12        -0.1498    8.3947   -9.0576 H         1 NCZ         0.1032 
     29 H13        -1.2705    5.5927   -8.7834 H         1 NCZ         0.0836 
     30 H14        -0.8354    5.4882  -11.4653 H         1 NCZ         0.1528 
     31 H15         1.7466    5.9516  -11.3112 H         1 NCZ         0.1528 
     32 H16         1.8001    6.1419   -8.6057 H         1 NCZ         0.0836 
     33 H6          2.5718    8.2499   -8.5749 H         1 NCZ         0.4243 
     34 H5         -2.7249    7.3419   -8.9226 H         1 NCZ         0.4243 
     35 H2         -1.5603    4.6725   -4.6840 H         1 NCZ         0.4084 
     36 H3          1.4909   11.6217   -2.1156 H         1 NCZ         0.1346 
     37 H171        2.2814   14.0053   -4.7719 H         1 NCZ         0.0417 
     38 H172        2.9574   12.7592   -3.7340 H         1 NCZ         0.0417 
     39 H173        1.5010   13.6510   -3.2367 H         1 NCZ         0.0417 
     40 H181        1.3594   10.3216   -0.1810 H         1 NCZ         0.0733 
     41 H182        1.6834    8.6228   -0.5337 H         1 NCZ         0.0733 
     42 H183        0.0400    9.1575   -0.1445 H         1 NCZ         0.0733 
@<TRIPOS>BOND
     1    1    2 ar   
     2    1   21 ar   
     3    1   25 1    
     4    2    3 ar   
     5    2    7 ar   
     6    3    4 ar   
     7    3   19 ar   
     8    4    5 ar   
     9    4   26 1    
    10    5    6 ar   
    11    5   27 1    
    12    6    7 ar   
    13    6   18 1    
    14    7    8 1    
    15    8    9 2    
    16    8   10 1    
    17   10   11 1    
    18   11   12 1    
    19   11   15 1    
    20   11   28 1    
    21   12   13 1    
    22   12   17 1    
    23   12   29 1    
    24   13   14 2    
    25   13   30 1    
    26   14   15 1    
    27   14   31 1    
    28   15   16 1    
    29   15   32 1    
    30   16   33 1    
    31   17   34 1    
    32   18   35 1    
    33   19   20 ar   
    34   19   24 1    
    35   20   21 ar   
    36   20   36 1    
    37   21   22 1    
    38   22   23 1    
    39   23   37 1    
    40   23   38 1    
    41   23   39 1    
    42   24   40 1    
    43   24   41 1    
    44   24   42 1    
@<TRIPOS>SUBSTRUCTURE
     1 NCZ         1 GROUP             0       ****    0 ROOT    
@<TRIPOS>MOLECULE
NCZ
42   44    1
SMALL
USER_CHARGES


@<TRIPOS>ATOM
      1 C1          0.9592   10.4701   -2.3964 C.ar      1 NCZ        -0.1709 
      2 C6          0.6422   11.2691   -1.2524 C.ar      1 NCZ         0.0726 
      3 C5          0.7888   12.6914   -1.3823 C.ar      1 NCZ        -0.0959 
      4 C7          0.5282   13.5095   -0.2561 C.ar      1 NCZ        -0.0424 
      5 C8          0.1571   12.9518    0.9556 C.ar      1 NCZ        -0.2379 
      6 C9         -0.0001   11.5852    1.0943 C.ar      1 NCZ         0.2611 
      7 C10         0.1912   10.7087    0.0055 C.ar      1 NCZ        -0.3060 
      8 C11        -0.0929    9.2344    0.1631 C.2       1 NCZ         0.6421 
      9 O3         -0.6408    8.5474   -0.6979 O.2       1 NCZ        -0.4040 
     10 O4          0.3519    8.7361    1.3466 O.3       1 NCZ        -0.3226 
     11 C12         0.3070    7.3397    1.6602 C.3       1 NCZ         0.0648 
     12 C13        -1.1025    6.8273    2.0051 C.3       1 NCZ         0.2089 
     13 C14        -0.9922    6.4786    3.4712 C.2       1 NCZ        -0.2040 
     14 C15         0.2488    6.6436    3.9518 C.2       1 NCZ        -0.2040 
     15 C16         1.2061    7.1025    2.8849 C.3       1 NCZ         0.2089 
     16 O6          2.2083    6.1423    2.6685 O.3       1 NCZ        -0.6331 
     17 O5         -1.5130    5.7198    1.2329 O.3       1 NCZ        -0.6331 
     18 O2         -0.3554   11.1474    2.3449 O.3       1 NCZ        -0.5507 
     19 C4          1.1907   13.2487   -2.6364 C.ar      1 NCZ        -0.0224 
     20 C3          1.4459   12.4165   -3.7196 C.ar      1 NCZ        -0.1967 
     21 C2          1.3373   11.0377   -3.6188 C.ar      1 NCZ         0.1767 
     22 O1          1.5999   10.3208   -4.7726 O.3       1 NCZ        -0.3596 
     23 C17         1.6179    8.8999   -4.7258 C.3       1 NCZ         0.1374 
     24 C18         1.3330   14.7558   -2.8110 C.3       1 NCZ        -0.1312 
     25 H1          0.9124    9.3983   -2.3135 H         1 NCZ         0.1606 
     26 H7          0.6332   14.5816   -0.3187 H         1 NCZ         0.1348 
     27 H8         -0.0180   13.5982    1.8028 H         1 NCZ         0.1341 
     28 H12         0.7044    6.8380    0.7775 H         1 NCZ         0.1032 
     29 H13        -1.8370    7.6182    1.8649 H         1 NCZ         0.0836 
     30 H14        -1.8420    6.1436    4.0460 H         1 NCZ         0.1528 
     31 H15         0.5741    6.4562    4.9652 H         1 NCZ         0.1528 
     32 H16         1.6861    8.0314    3.2015 H         1 NCZ         0.0836 
     33 H6          2.5600    6.2439    1.7712 H         1 NCZ         0.4243 
     34 H5         -2.3129    5.3564    1.6233 H         1 NCZ         0.4243 
     35 H2         -0.2404   10.1959    2.4126 H         1 NCZ         0.4084 
     36 H3          1.7433   12.8420   -4.6686 H         1 NCZ         0.1346 
     37 H171        1.7557    8.5071   -5.7326 H         1 NCZ         0.0417 
     38 H172        0.6869    8.4752   -4.3439 H         1 NCZ         0.0417 
     39 H173        2.4523    8.5417   -4.1268 H         1 NCZ         0.0417 
     40 H181        1.6397   15.0189   -3.8238 H         1 NCZ         0.0733 
     41 H182        2.0815   15.1564   -2.1276 H         1 NCZ         0.0733 
     42 H183        0.3821   15.2529   -2.6168 H         1 NCZ         0.0733 
@<TRIPOS>BOND
     1    1    2 ar   
     2    1   21 ar   
     3    1   25 1    
     4    2    3 ar   
     5    2    7 ar   
     6    3    4 ar   
     7    3   19 ar   
     8    4    5 ar   
     9    4   26 1    
    10    5    6 ar   
    11    5   27 1    
    12    6    7 ar   
    13    6   18 1    
    14    7    8 1    
    15    8    9 2    
    16    8   10 1    
    17   10   11 1    
    18   11   12 1    
    19   11   15 1    
    20   11   28 1    
    21   12   13 1    
    22   12   17 1    
    23   12   29 1    
    24   13   14 2    
    25   13   30 1    
    26   14   15 1    
    27   14   31 1    
    28   15   16 1    
    29   15   32 1    
    30   16   33 1    
    31   17   34 1    
    32   18   35 1    
    33   19   20 ar   
    34   19   24 1    
    35   20   21 ar   
    36   20   36 1    
    37   21   22 1    
    38   22   23 1    
    39   23   37 1    
    40   23   38 1    
    41   23   39 1    
    42   24   40 1    
    43   24   41 1    
    44   24   42 1    
@<TRIPOS>SUBSTRUCTURE
     1 NCZ         1 GROUP             0       ****    0 ROOT    
@<TRIPOS>MOLECULE
NCZ
42   44    1
SMALL
USER_CHARGES


@<TRIPOS>ATOM
      1 C1         -0.0318   10.0518   -4.4030 C.ar      1 NCZ        -0.1709 
      2 C6         -0.2557    8.7280   -3.9201 C.ar      1 NCZ         0.0726 
      3 C5         -0.0473    8.4826   -2.5238 C.ar      1 NCZ        -0.0959 
      4 C7         -0.2420    7.1665   -2.0281 C.ar      1 NCZ        -0.0424 
      5 C8         -0.6420    6.1421   -2.8676 C.ar      1 NCZ        -0.2379 
      6 C9         -0.9046    6.3780   -4.2091 C.ar      1 NCZ         0.2611 
      7 C10        -0.6843    7.6459   -4.7683 C.ar      1 NCZ        -0.3060 
      8 C11        -0.8780    7.8337   -6.2311 C.2       1 NCZ         0.6421 
      9 O3         -1.8393    8.4291   -6.7209 O.2       1 NCZ        -0.4040 
     10 O4          0.1799    7.3495   -6.9270 O.3       1 NCZ        -0.3226 
     11 C12         0.2795    7.4831   -8.3480 C.3       1 NCZ         0.0648 
     12 C13        -0.5938    6.4727   -9.1063 C.3       1 NCZ         0.2089 
     13 C14         0.2729    6.1420  -10.3007 C.2       1 NCZ        -0.2040 
     14 C15         1.5381    6.5667  -10.1309 C.2       1 NCZ        -0.2040 
     15 C16         1.7263    7.2367   -8.7879 C.3       1 NCZ         0.2089 
     16 O6          2.4882    8.4216   -8.8814 O.3       1 NCZ        -0.6331 
     17 O5         -1.8416    7.0061   -9.4974 O.3       1 NCZ        -0.6331 
     18 O2         -1.4412    5.3430   -4.9367 O.3       1 NCZ        -0.5507 
     19 C4          0.3633    9.5583   -1.6791 C.ar      1 NCZ        -0.0224 
     20 C3          0.5563   10.8322   -2.2070 C.ar      1 NCZ        -0.1967 
     21 C2          0.3624   11.0892   -3.5658 C.ar      1 NCZ         0.1767 
     22 O1          0.5334   12.3247   -4.1603 O.3       1 NCZ        -0.3596 
     23 C17         0.8693   13.4458   -3.3502 C.3       1 NCZ         0.1374 
     24 C18         0.5993    9.3162   -0.1948 C.3       1 NCZ        -0.1312 
     25 H1         -0.1762   10.2767   -5.4484 H         1 NCZ         0.1606 
     26 H7         -0.0508    6.9389   -0.9898 H         1 NCZ         0.1348 
     27 H8         -0.7963    5.1613   -2.4433 H         1 NCZ         0.1341 
     28 H12        -0.0035    8.5016   -8.6253 H         1 NCZ         0.1032 
     29 H13        -0.7430    5.5676   -8.5137 H         1 NCZ         0.0836 
     30 H14        -0.1107    5.5995  -11.1522 H         1 NCZ         0.1528 
     31 H15         2.3592    6.4244  -10.8182 H         1 NCZ         0.1528 
     32 H16         2.2266    6.5415   -8.1124 H         1 NCZ         0.0836 
     33 H6          2.7072    8.7143   -7.9927 H         1 NCZ         0.4243 
     34 H5         -2.3594    7.2202   -8.7118 H         1 NCZ         0.4243 
     35 H2         -1.5006    4.5282   -4.4243 H         1 NCZ         0.4084 
     36 H3          0.8688   11.6211   -1.5410 H         1 NCZ         0.1346 
     37 H171        0.9567   14.3313   -3.9793 H         1 NCZ         0.0417 
     38 H172        1.8261   13.3047   -2.8470 H         1 NCZ         0.0417 
     39 H173        0.0980   13.6454   -2.6047 H         1 NCZ         0.0417 
     40 H181        0.9483   10.2124    0.3184 H         1 NCZ         0.0733 
     41 H182        1.3579    8.5417   -0.0665 H         1 NCZ         0.0733 
     42 H183       -0.3189    8.9866    0.2917 H         1 NCZ         0.0733 
@<TRIPOS>BOND
     1    1    2 ar   
     2    1   21 ar   
     3    1   25 1    
     4    2    3 ar   
     5    2    7 ar   
     6    3    4 ar   
     7    3   19 ar   
     8    4    5 ar   
     9    4   26 1    
    10    5    6 ar   
    11    5   27 1    
    12    6    7 ar   
    13    6   18 1    
    14    7    8 1    
    15    8    9 2    
    16    8   10 1    
    17   10   11 1    
    18   11   12 1    
    19   11   15 1    
    20   11   28 1    
    21   12   13 1    
    22   12   17 1    
    23   12   29 1    
    24   13   14 2    
    25   13   30 1    
    26   14   15 1    
    27   14   31 1    
    28   15   16 1    
    29   15   32 1    
    30   16   33 1    
    31   17   34 1    
    32   18   35 1    
    33   19   20 ar   
    34   19   24 1    
    35   20   21 ar   
    36   20   36 1    
    37   21   22 1    
    38   22   23 1    
    39   23   37 1    
    40   23   38 1    
    41   23   39 1    
    42   24   40 1    
    43   24   41 1    
    44   24   42 1    
@<TRIPOS>SUBSTRUCTURE
     1 NCZ         1 GROUP             0       ****    0 ROOT    
@<TRIPOS>MOLECULE
NCZ
42   44    1
SMALL
USER_CHARGES


@<TRIPOS>ATOM
      1 C1          0.2748   10.2454   -3.0376 C.ar      1 NCZ        -0.1709 
      2 C6         -0.0305    8.8655   -2.8447 C.ar      1 NCZ         0.0726 
      3 C5          0.0151    8.3546   -1.5043 C.ar      1 NCZ        -0.0959 
      4 C7         -0.2421    6.9764   -1.2903 C.ar      1 NCZ        -0.0424 
      5 C8         -0.5669    6.1418   -2.3442 C.ar      1 NCZ        -0.2379 
      6 C9         -0.6411    6.6269   -3.6410 C.ar      1 NCZ         0.2611 
      7 C10        -0.3761    7.9764   -3.9264 C.ar      1 NCZ        -0.3060 
      8 C11        -0.4786    8.4300   -5.3448 C.2       1 NCZ         0.6421 
      9 O3         -1.2562    9.3079   -5.7224 O.2       1 NCZ        -0.4040 
     10 O4          0.4069    7.7795   -6.1395 O.3       1 NCZ        -0.3226 
     11 C12         0.4050    7.9113   -7.5630 C.3       1 NCZ         0.0648 
     12 C13        -0.0686    6.6074   -8.2184 C.3       1 NCZ         0.2089 
     13 C14         0.8014    6.5473   -9.4541 C.2       1 NCZ        -0.2040 
     14 C15         1.8372    7.4018   -9.3730 C.2       1 NCZ        -0.2040 
     15 C16         1.8243    8.1683   -8.0698 C.3       1 NCZ         0.2089 
     16 O6          2.0990    9.5421   -8.2490 O.3       1 NCZ        -0.6331 
     17 O5         -1.4420    6.6137   -8.5402 O.3       1 NCZ        -0.6331 
     18 O2         -1.0422    5.7418   -4.6096 O.3       1 NCZ        -0.5507 
     19 C4          0.3219    9.2376   -0.4258 C.ar      1 NCZ        -0.0224 
     20 C3          0.6068   10.5758   -0.6781 C.ar      1 NCZ        -0.1967 
     21 C2          0.5977   11.0871   -1.9781 C.ar      1 NCZ         0.1767 
     22 O1          0.8895   12.3990   -2.2978 O.3       1 NCZ        -0.3596 
     23 C17         1.2611   13.2980   -1.2586 C.3       1 NCZ         0.1374 
     24 C18         0.3402    8.7225    1.0094 C.3       1 NCZ        -0.1312 
     25 H1          0.2670   10.6638   -4.0318 H         1 NCZ         0.1606 
     26 H7         -0.1719    6.5526   -0.3000 H         1 NCZ         0.1348 
     27 H8         -0.7589    5.0991   -2.1347 H         1 NCZ         0.1341 
     28 H12        -0.2387    8.7357   -7.8794 H         1 NCZ         0.1032 
     29 H13         0.1553    5.7427   -7.5879 H         1 NCZ         0.0836 
     30 H14         0.6031    5.8558  -10.2598 H         1 NCZ         0.1528 
     31 H15         2.6247    7.5263  -10.1016 H         1 NCZ         0.1528 
     32 H16         2.5578    7.7242   -7.3957 H         1 NCZ         0.0836 
     33 H6          2.1062    9.9660   -7.3877 H         1 NCZ         0.4243 
     34 H5         -1.9564    6.7469   -7.7383 H         1 NCZ         0.4243 
     35 H2         -1.1814    4.8657   -4.2296 H         1 NCZ         0.4084 
     36 H3          0.8456   11.2125    0.1591 H         1 NCZ         0.1346 
     37 H171        1.5023   14.2695   -1.6900 H         1 NCZ         0.0417 
     38 H172        2.1420   12.9441   -0.7200 H         1 NCZ         0.0417 
     39 H173        0.4449   13.4466   -0.5501 H         1 NCZ         0.0417 
     40 H181        0.5588    9.5135    1.7270 H         1 NCZ         0.0733 
     41 H182        1.0991    7.9463    1.1237 H         1 NCZ         0.0733 
     42 H183       -0.6284    8.2985    1.2752 H         1 NCZ         0.0733 
@<TRIPOS>BOND
     1    1    2 ar   
     2    1   21 ar   
     3    1   25 1    
     4    2    3 ar   
     5    2    7 ar   
     6    3    4 ar   
     7    3   19 ar   
     8    4    5 ar   
     9    4   26 1    
    10    5    6 ar   
    11    5   27 1    
    12    6    7 ar   
    13    6   18 1    
    14    7    8 1    
    15    8    9 2    
    16    8   10 1    
    17   10   11 1    
    18   11   12 1    
    19   11   15 1    
    20   11   28 1    
    21   12   13 1    
    22   12   17 1    
    23   12   29 1    
    24   13   14 2    
    25   13   30 1    
    26   14   15 1    
    27   14   31 1    
    28   15   16 1    
    29   15   32 1    
    30   16   33 1    
    31   17   34 1    
    32   18   35 1    
    33   19   20 ar   
    34   19   24 1    
    35   20   21 ar   
    36   20   36 1    
    37   21   22 1    
    38   22   23 1    
    39   23   37 1    
    40   23   38 1    
    41   23   39 1    
    42   24   40 1    
    43   24   41 1    
    44   24   42 1    
@<TRIPOS>SUBSTRUCTURE
     1 NCZ         1 GROUP             0       ****    0 ROOT    
@<TRIPOS>MOLECULE
NCZ
42   44    1
SMALL
USER_CHARGES


@<TRIPOS>ATOM
      1 C1          0.1425   13.5627   -2.9022 C.ar      1 NCZ        -0.1709 
      2 C6          0.7002   12.3119   -2.4952 C.ar      1 NCZ         0.0726 
      3 C5          0.7342   12.0305   -1.0876 C.ar      1 NCZ        -0.0959 
      4 C7          1.2602   10.7879   -0.6528 C.ar      1 NCZ        -0.0424 
      5 C8          1.7564    9.8684   -1.5614 C.ar      1 NCZ        -0.2379 
      6 C9          1.7492   10.1352   -2.9197 C.ar      1 NCZ         0.2611 
      7 C10         1.2214   11.3369   -3.4268 C.ar      1 NCZ        -0.3060 
      8 C11         1.2246   11.5786   -4.9158 C.2       1 NCZ         0.6421 
      9 O3          1.6348   12.6189   -5.4268 O.2       1 NCZ        -0.4040 
     10 O4          0.7998   10.5447   -5.6984 O.3       1 NCZ        -0.3226 
     11 C12        -0.3240    9.7121   -5.3756 C.3       1 NCZ         0.0648 
     12 C13        -0.1710    8.3565   -6.0740 C.3       1 NCZ         0.2089 
     13 C14        -1.6005    8.0270   -6.4375 C.2       1 NCZ        -0.2040 
     14 C15        -2.4065    9.0975   -6.3142 C.2       1 NCZ        -0.2040 
     15 C16        -1.6449   10.3224   -5.8575 C.3       1 NCZ         0.2089 
     16 O6         -2.3167   11.0257   -4.8332 O.3       1 NCZ        -0.6331 
     17 O5          0.4135    7.3594   -5.2602 O.3       1 NCZ        -0.6331 
     18 O2          2.2682    9.1705   -3.7393 O.3       1 NCZ        -0.5507 
     19 C4          0.2332   13.0023   -0.1646 C.ar      1 NCZ        -0.0224 
     20 C3         -0.2604   14.2178   -0.6270 C.ar      1 NCZ        -0.1967 
     21 C2         -0.3147   14.5081   -1.9914 C.ar      1 NCZ         0.1767 
     22 O1         -0.8087   15.6851   -2.5196 O.3       1 NCZ        -0.3596 
     23 C17        -1.0632   16.7839   -1.6522 C.3       1 NCZ         0.1374 
     24 C18         0.2295   12.7215    1.3346 C.3       1 NCZ        -0.1312 
     25 H1          0.0758   13.8126   -3.9481 H         1 NCZ         0.1606 
     26 H7          1.2924   10.5438    0.3970 H         1 NCZ         0.1348 
     27 H8          2.1628    8.9326   -1.1993 H         1 NCZ         0.1341 
     28 H12        -0.3774    9.5426   -4.2978 H         1 NCZ         0.1032 
     29 H13         0.4117    8.4628   -6.9912 H         1 NCZ         0.0836 
     30 H14        -1.8889    7.0460   -6.7831 H         1 NCZ         0.1528 
     31 H15        -3.4609    9.1234   -6.5473 H         1 NCZ         0.1528 
     32 H16        -1.4794   10.9789   -6.7139 H         1 NCZ         0.0836 
     33 H6         -3.1580   11.3461   -5.1694 H         1 NCZ         0.4243 
     34 H5          1.2006    7.7278   -4.8395 H         1 NCZ         0.4243 
     35 H2          2.5439    8.3631   -3.2529 H         1 NCZ         0.4084 
     36 H3         -0.6229   14.9349    0.0949 H         1 NCZ         0.1346 
     37 H171       -1.4111   17.6328   -2.2446 H         1 NCZ         0.0417 
     38 H172       -0.1552   17.0995   -1.1335 H         1 NCZ         0.0417 
     39 H173       -1.8377   16.5600   -0.9198 H         1 NCZ         0.0417 
     40 H181       -0.2067   13.5455    1.9031 H         1 NCZ         0.0733 
     41 H182        1.2485   12.5762    1.6924 H         1 NCZ         0.0733 
     42 H183       -0.3512   11.8264    1.5589 H         1 NCZ         0.0733 
@<TRIPOS>BOND
     1    1    2 ar   
     2    1   21 ar   
     3    1   25 1    
     4    2    3 ar   
     5    2    7 ar   
     6    3    4 ar   
     7    3   19 ar   
     8    4    5 ar   
     9    4   26 1    
    10    5    6 ar   
    11    5   27 1    
    12    6    7 ar   
    13    6   18 1    
    14    7    8 1    
    15    8    9 2    
    16    8   10 1    
    17   10   11 1    
    18   11   12 1    
    19   11   15 1    
    20   11   28 1    
    21   12   13 1    
    22   12   17 1    
    23   12   29 1    
    24   13   14 2    
    25   13   30 1    
    26   14   15 1    
    27   14   31 1    
    28   15   16 1    
    29   15   32 1    
    30   16   33 1    
    31   17   34 1    
    32   18   35 1    
    33   19   20 ar   
    34   19   24 1    
    35   20   21 ar   
    36   20   36 1    
    37   21   22 1    
    38   22   23 1    
    39   23   37 1    
    40   23   38 1    
    41   23   39 1    
    42   24   40 1    
    43   24   41 1    
    44   24   42 1    
@<TRIPOS>SUBSTRUCTURE
     1 NCZ         1 GROUP             0       ****    0 ROOT    
@<TRIPOS>MOLECULE
NCZ
42   44    1
SMALL
USER_CHARGES


@<TRIPOS>ATOM
      1 C1          0.4079   10.1994   -2.9754 C.ar      1 NCZ        -0.1709 
      2 C6          0.0424    8.8293   -2.8047 C.ar      1 NCZ         0.0726 
      3 C5          0.0393    8.3087   -1.4673 C.ar      1 NCZ        -0.0959 
      4 C7         -0.2857    6.9435   -1.2692 C.ar      1 NCZ        -0.0424 
      5 C8         -0.6395    6.1346   -2.3339 C.ar      1 NCZ        -0.2379 
      6 C9         -0.6419    6.6205   -3.6324 C.ar      1 NCZ         0.2611 
      7 C10        -0.3201    7.9631   -3.9037 C.ar      1 NCZ        -0.3060 
      8 C11        -0.4116    8.4590   -5.3123 C.2       1 NCZ         0.6421 
      9 O3         -1.0626    9.4565   -5.6346 O.2       1 NCZ        -0.4040 
     10 O4          0.3140    7.7066   -6.1845 O.3       1 NCZ        -0.3226 
     11 C12         0.2988    7.9517   -7.5972 C.3       1 NCZ         0.0648 
     12 C13        -1.0664    7.6515   -8.2438 C.3       1 NCZ         0.2089 
     13 C14        -0.6786    6.9990   -9.5498 C.2       1 NCZ        -0.2040 
     14 C15         0.6244    6.6693   -9.5734 C.2       1 NCZ        -0.2040 
     15 C16         1.3258    7.0473   -8.2880 C.3       1 NCZ         0.2089 
     16 O6          2.5588    7.6906   -8.5323 O.3       1 NCZ        -0.6331 
     17 O5         -1.8414    8.8160   -8.4400 O.3       1 NCZ        -0.6331 
     18 O2         -1.0420    5.7418   -4.6092 O.3       1 NCZ        -0.5507 
     19 C4          0.3593    9.1709   -0.3745 C.ar      1 NCZ        -0.0224 
     20 C3          0.6929   10.5015   -0.6074 C.ar      1 NCZ        -0.1967 
     21 C2          0.7268   11.0241   -1.9016 C.ar      1 NCZ         0.1767 
     22 O1          1.0578   12.3315   -2.2041 O.3       1 NCZ        -0.3596 
     23 C17         1.3069   13.2472   -1.1431 C.3       1 NCZ         0.1374 
     24 C18         0.3380    8.6423    1.0557 C.3       1 NCZ        -0.1312 
     25 H1          0.4459   10.6293   -3.9636 H         1 NCZ         0.1606 
     26 H7         -0.2642    6.5141   -0.2791 H         1 NCZ         0.1348 
     27 H8         -0.8874    5.1015   -2.1351 H         1 NCZ         0.1341 
     28 H12         0.5703    8.9967   -7.7640 H         1 NCZ         0.1032 
     29 H13        -1.6283    6.9302   -7.6462 H         1 NCZ         0.0836 
     30 H14        -1.4020    6.8100  -10.3288 H         1 NCZ         0.1528 
     31 H15         1.1428    6.1628  -10.3744 H         1 NCZ         0.1528 
     32 H16         1.4919    6.1420   -7.7028 H         1 NCZ         0.0836 
     33 H6          3.0222    7.8055   -7.6975 H         1 NCZ         0.4243 
     34 H5         -2.0406    9.1933   -7.5774 H         1 NCZ         0.4243 
     35 H2         -1.2060    4.8686   -4.2332 H         1 NCZ         0.4084 
     36 H3          0.9370   11.1226    0.2399 H         1 NCZ         0.1346 
     37 H171        1.5388   14.2271   -1.5598 H         1 NCZ         0.0417 
     38 H172        2.1569   12.9361   -0.5343 H         1 NCZ         0.0417 
     39 H173        0.4315   13.3617   -0.5019 H         1 NCZ         0.0417 
     40 H181        0.5585    9.4224    1.7847 H         1 NCZ         0.0733 
     41 H182        1.0800    7.8505    1.1759 H         1 NCZ         0.0733 
     42 H183       -0.6441    8.2366    1.2999 H         1 NCZ         0.0733 
@<TRIPOS>BOND
     1    1    2 ar   
     2    1   21 ar   
     3    1   25 1    
     4    2    3 ar   
     5    2    7 ar   
     6    3    4 ar   
     7    3   19 ar   
     8    4    5 ar   
     9    4   26 1    
    10    5    6 ar   
    11    5   27 1    
    12    6    7 ar   
    13    6   18 1    
    14    7    8 1    
    15    8    9 2    
    16    8   10 1    
    17   10   11 1    
    18   11   12 1    
    19   11   15 1    
    20   11   28 1    
    21   12   13 1    
    22   12   17 1    
    23   12   29 1    
    24   13   14 2    
    25   13   30 1    
    26   14   15 1    
    27   14   31 1    
    28   15   16 1    
    29   15   32 1    
    30   16   33 1    
    31   17   34 1    
    32   18   35 1    
    33   19   20 ar   
    34   19   24 1    
    35   20   21 ar   
    36   20   36 1    
    37   21   22 1    
    38   22   23 1    
    39   23   37 1    
    40   23   38 1    
    41   23   39 1    
    42   24   40 1    
    43   24   41 1    
    44   24   42 1    
@<TRIPOS>SUBSTRUCTURE
     1 NCZ         1 GROUP             0       ****    0 ROOT    
@<TRIPOS>MOLECULE
NCZ
42   44    1
SMALL
USER_CHARGES


@<TRIPOS>ATOM
      1 C1          0.6053   12.4989   -0.8417 C.ar      1 NCZ        -0.1709 
      2 C6          0.4158   11.0812   -0.7893 C.ar      1 NCZ         0.0726 
      3 C5          0.7344   10.3312   -1.9710 C.ar      1 NCZ        -0.0959 
      4 C7          0.5761    8.9257   -1.9428 C.ar      1 NCZ        -0.0424 
      5 C8          0.1536    8.2735   -0.7998 C.ar      1 NCZ        -0.2379 
      6 C9         -0.1630    8.9778    0.3475 C.ar      1 NCZ         0.2611 
      7 C10        -0.0510   10.3812    0.3906 C.ar      1 NCZ        -0.3060 
      8 C11        -0.3714   11.1111    1.6584 C.2       1 NCZ         0.6421 
      9 O3         -1.0416   12.1451    1.7010 O.2       1 NCZ        -0.4040 
     10 O4          0.2525   10.5779    2.7411 O.3       1 NCZ        -0.3226 
     11 C12         0.2661   11.2290    4.0170 C.3       1 NCZ         0.0648 
     12 C13         1.1918   12.4556    4.0034 C.3       1 NCZ         0.2089 
     13 C14         1.9273   12.3410    5.3187 C.2       1 NCZ        -0.2040 
     14 C15         1.7216   11.1472    5.9025 C.2       1 NCZ        -0.2040 
     15 C16         0.7884   10.2703    5.0981 C.3       1 NCZ         0.2089 
     16 O6         -0.2414    9.7380    5.9086 O.3       1 NCZ        -0.6331 
     17 O5          0.4785   13.6704    3.8797 O.3       1 NCZ        -0.6331 
     18 O2         -0.5828    8.2293    1.4189 O.3       1 NCZ        -0.5507 
     19 C4          1.2198   11.0119   -3.1289 C.ar      1 NCZ        -0.0224 
     20 C3          1.3590   12.3961   -3.1197 C.ar      1 NCZ        -0.1967 
     21 C2          1.0609   13.1483   -1.9940 C.ar      1 NCZ         0.1767 
     22 O1          1.2567   14.5127   -2.0972 O.3       1 NCZ        -0.3596 
     23 C17         1.0236   15.3414   -0.9640 C.3       1 NCZ         0.1374 
     24 C18         1.6088   10.2328   -4.3774 C.3       1 NCZ        -0.1312 
     25 H1          0.3957   13.0905    0.0296 H         1 NCZ         0.1606 
     26 H7          0.8368    8.3239   -2.8024 H         1 NCZ         0.1348 
     27 H8          0.0906    7.1932   -0.8176 H         1 NCZ         0.1341 
     28 H12        -0.7544   11.5291    4.2653 H         1 NCZ         0.1032 
     29 H13         1.9251   12.3798    3.1981 H         1 NCZ         0.0836 
     30 H14         2.5631   13.1326    5.6852 H         1 NCZ         0.1528 
     31 H15         2.1640   10.8054    6.8283 H         1 NCZ         0.1528 
     32 H16         1.3662    9.4568    4.6557 H         1 NCZ         0.0836 
     33 H6         -0.6910    9.0205    5.4493 H         1 NCZ         0.4243 
     34 H5         -0.0111   13.6511    3.0499 H         1 NCZ         0.4243 
     35 H2         -0.4358    7.2927    1.2681 H         1 NCZ         0.4084 
     36 H3          1.7268   12.9055   -3.9992 H         1 NCZ         0.1346 
     37 H171        1.2368   16.3779   -1.2260 H         1 NCZ         0.0417 
     38 H172        1.6743   15.0751   -0.1298 H         1 NCZ         0.0417 
     39 H173       -0.0178   15.2923   -0.6397 H         1 NCZ         0.0417 
     40 H181        2.0063   10.8842   -5.1586 H         1 NCZ         0.0733 
     41 H182        0.7450    9.7075   -4.7864 H         1 NCZ         0.0733 
     42 H183        2.3782    9.4981   -4.1330 H         1 NCZ         0.0733 
@<TRIPOS>BOND
     1    1    2 ar   
     2    1   21 ar   
     3    1   25 1    
     4    2    3 ar   
     5    2    7 ar   
     6    3    4 ar   
     7    3   19 ar   
     8    4    5 ar   
     9    4   26 1    
    10    5    6 ar   
    11    5   27 1    
    12    6    7 ar   
    13    6   18 1    
    14    7    8 1    
    15    8    9 2    
    16    8   10 1    
    17   10   11 1    
    18   11   12 1    
    19   11   15 1    
    20   11   28 1    
    21   12   13 1    
    22   12   17 1    
    23   12   29 1    
    24   13   14 2    
    25   13   30 1    
    26   14   15 1    
    27   14   31 1    
    28   15   16 1    
    29   15   32 1    
    30   16   33 1    
    31   17   34 1    
    32   18   35 1    
    33   19   20 ar   
    34   19   24 1    
    35   20   21 ar   
    36   20   36 1    
    37   21   22 1    
    38   22   23 1    
    39   23   37 1    
    40   23   38 1    
    41   23   39 1    
    42   24   40 1    
    43   24   41 1    
    44   24   42 1    
@<TRIPOS>SUBSTRUCTURE
     1 NCZ         1 GROUP             0       ****    0 ROOT    
