@<TRIPOS>MOLECULE
NCZ
42   44    1
SMALL
USER_CHARGES


@<TRIPOS>ATOM
      1 C1         -0.2105   10.8813    2.0278 C.ar      1 NCZ        -0.1709 
      2 C6          0.1503   10.4181    0.7299 C.ar      1 NCZ         0.0726 
      3 C5          0.5035   11.3992   -0.2550 C.ar      1 NCZ        -0.0959 
      4 C7          0.9034   10.9538   -1.5429 C.ar      1 NCZ        -0.0424 
      5 C8          0.9320    9.6031   -1.8512 C.ar      1 NCZ        -0.2379 
      6 C9          0.5527    8.6501   -0.9191 C.ar      1 NCZ         0.2611 
      7 C10         0.1659    9.0225    0.3768 C.ar      1 NCZ        -0.3060 
      8 C11        -0.2282    7.9553    1.3419 C.2       1 NCZ         0.6421 
      9 O3         -1.4017    7.6123    1.4666 O.2       1 NCZ        -0.4040 
     10 O4          0.8456    7.4772    2.0495 O.3       1 NCZ        -0.3226 
     11 C12         0.8310    6.5175    3.1352 C.3       1 NCZ         0.0648 
     12 C13        -0.2601    5.4251    3.2145 C.3       1 NCZ         0.2089 
     13 C14        -0.6825    5.4878    4.6620 C.2       1 NCZ        -0.2040 
     14 C15        -0.1326    6.5075    5.3285 C.2       1 NCZ        -0.2040 
     15 C16         0.9357    7.1838    4.5252 C.3       1 NCZ         0.2089 
     16 O6          2.1580    6.9418    5.1818 O.3       1 NCZ        -0.6331 
     17 O5          0.1579    4.1411    2.8213 O.3       1 NCZ        -0.6331 
     18 O2          0.5579    7.3417   -1.3245 O.3       1 NCZ        -0.5507 
     19 C4          0.4403   12.7859    0.0881 C.ar      1 NCZ        -0.0224 
     20 C3          0.0682   13.1742    1.3724 C.ar      1 NCZ        -0.1967 
     21 C2         -0.2515   12.2317    2.3507 C.ar      1 NCZ         0.1767 
     22 O1         -0.6382   12.5427    3.6405 O.3       1 NCZ        -0.3596 
     23 C17        -0.6552   13.9063    4.0498 C.3       1 NCZ         0.1374 
     24 C18         0.7550   13.8551   -0.9508 C.3       1 NCZ        -0.1312 
     25 H1         -0.4618   10.1694    2.7963 H         1 NCZ         0.1606 
     26 H7          1.1901   11.6639   -2.3033 H         1 NCZ         0.1348 
     27 H8          1.2430    9.2836   -2.8359 H         1 NCZ         0.1341 
     28 H12         1.7787    6.0070    2.9553 H         1 NCZ         0.1032 
     29 H13        -1.1484    5.6374    2.6307 H         1 NCZ         0.0836 
     30 H14        -1.4422    4.8421    5.0650 H         1 NCZ         0.1528 
     31 H15        -0.3518    6.7934    6.3468 H         1 NCZ         0.1528 
     32 H16         0.7393    8.2548    4.4533 H         1 NCZ         0.0836 
     33 H6          2.1733    6.0008    5.4148 H         1 NCZ         0.4243 
     34 H5          1.0437    3.9717    3.1611 H         1 NCZ         0.4243 
     35 H2          1.4699    7.0198   -1.5154 H         1 NCZ         0.4084 
     36 H3          0.0213   14.2285    1.5971 H         1 NCZ         0.1346 
     37 H171       -0.9565   13.9630    5.0956 H         1 NCZ         0.0417 
     38 H172       -1.3709   14.4914    3.4703 H         1 NCZ         0.0417 
     39 H173        0.3324   14.3628    3.9670 H         1 NCZ         0.0417 
     40 H181        0.7089   14.8601   -0.5304 H         1 NCZ         0.0733 
     41 H182        0.0397   13.8066   -1.7722 H         1 NCZ         0.0733 
     42 H183        1.7550   13.7156   -1.3572 H         1 NCZ         0.0733 
@<TRIPOS>BOND
     1    1    2 ar   
     2    1   21 ar   
     3    1   25 1    
     4    2    3 ar   
     5    2    7 ar   
     6    3    4 ar   
     7    3   19 ar   
     8    4    5 ar   
     9    4   26 1    
    10    5    6 ar   
    11    5   27 1    
    12    6    7 ar   
    13    6   18 1    
    14    7    8 1    
    15    8    9 2    
    16    8   10 1    
    17   10   11 1    
    18   11   12 1    
    19   11   15 1    
    20   11   28 1    
    21   12   13 1    
    22   12   17 1    
    23   12   29 1    
    24   13   14 2    
    25   13   30 1    
    26   14   15 1    
    27   14   31 1    
    28   15   16 1    
    29   15   32 1    
    30   16   33 1    
    31   17   34 1    
    32   18   35 1    
    33   19   20 ar   
    34   19   24 1    
    35   20   21 ar   
    36   20   36 1    
    37   21   22 1    
    38   22   23 1    
    39   23   37 1    
    40   23   38 1    
    41   23   39 1    
    42   24   40 1    
    43   24   41 1    
    44   24   42 1    
@<TRIPOS>SUBSTRUCTURE
     1 NCZ         1 GROUP             0       ****    0 ROOT    
