@<TRIPOS>MOLECULE
NCZ
42   44    1
SMALL
USER_CHARGES


@<TRIPOS>ATOM
      1 C1         -0.0424    8.6528   -3.0730 C.ar      1 NCZ        -0.1709 
      2 C6          0.3015    9.7236   -2.1866 C.ar      1 NCZ         0.0726 
      3 C5          1.0613   10.8077   -2.7444 C.ar      1 NCZ        -0.0959 
      4 C7          1.3580   11.9242   -1.9233 C.ar      1 NCZ        -0.0424 
      5 C8          0.9505   11.9712   -0.6033 C.ar      1 NCZ        -0.2379 
      6 C9          0.2309   10.9310   -0.0432 C.ar      1 NCZ         0.2611 
      7 C10        -0.0956    9.7801   -0.7901 C.ar      1 NCZ        -0.3060 
      8 C11        -0.9540    8.7334   -0.1334 C.2       1 NCZ         0.6421 
      9 O3         -1.8423    9.0156    0.6667 O.2       1 NCZ        -0.4040 
     10 O4         -0.6444    7.4590   -0.4663 O.3       1 NCZ        -0.3226 
     11 C12        -1.5015    6.3496   -0.1334 C.3       1 NCZ         0.0648 
     12 C13        -1.5648    6.0564    1.3722 C.3       1 NCZ         0.2089 
     13 C14        -1.2303    4.5940    1.4672 C.2       1 NCZ        -0.2040 
     14 C15        -0.9327    4.0809    0.2651 C.2       1 NCZ        -0.2040 
     15 C16        -1.0244    5.0948   -0.8567 C.3       1 NCZ         0.2089 
     16 O6         -1.8420    4.6293   -1.9022 O.3       1 NCZ        -0.6331 
     17 O5         -2.8495    6.3266    1.8664 O.3       1 NCZ        -0.6331 
     18 O2         -0.1451   11.0963    1.2685 O.3       1 NCZ        -0.5507 
     19 C4          1.4882   10.7451   -4.1090 C.ar      1 NCZ        -0.0224 
     20 C3          1.1415    9.6555   -4.9025 C.ar      1 NCZ        -0.1967 
     21 C2          0.3757    8.6057   -4.3970 C.ar      1 NCZ         0.1767 
     22 O1         -0.0157    7.4996   -5.1297 O.3       1 NCZ        -0.3596 
     23 C17         0.5085    7.3155   -6.4406 C.3       1 NCZ         0.1374 
     24 C18         2.3254   11.8679   -4.7132 C.3       1 NCZ        -0.1312 
     25 H1         -0.6371    7.8214   -2.7400 H         1 NCZ         0.1606 
     26 H7          1.9163   12.7582   -2.3198 H         1 NCZ         0.1348 
     27 H8          1.1929   12.8368   -0.0043 H         1 NCZ         0.1341 
     28 H12        -2.5030    6.5578   -0.5046 H         1 NCZ         0.1032 
     29 H13        -0.8155    6.6287    1.9225 H         1 NCZ         0.0836 
     30 H14        -1.2067    4.0681    2.4109 H         1 NCZ         0.1528 
     31 H15        -0.6164    3.0662    0.0980 H         1 NCZ         0.1528 
     32 H16        -0.0814    5.3419   -1.3356 H         1 NCZ         0.0836 
     33 H6         -1.3331    3.9801   -2.4043 H         1 NCZ         0.4243 
     34 H5         -3.0393    5.6987    2.5797 H         1 NCZ         0.4243 
     35 H2         -0.7459   10.3958    1.5405 H         1 NCZ         0.4084 
     36 H3          1.4753    9.6378   -5.9277 H         1 NCZ         0.1346 
     37 H171        0.1374    6.3754   -6.8486 H         1 NCZ         0.0417 
     38 H172        1.5988    7.2636   -6.4316 H         1 NCZ         0.0417 
     39 H173        0.1907    8.1123   -7.1147 H         1 NCZ         0.0417 
     40 H181        2.5905   11.6684   -5.7519 H         1 NCZ         0.0733 
     41 H182        3.2550   11.9956   -4.1574 H         1 NCZ         0.0733 
     42 H183        1.7763   12.8094   -4.6903 H         1 NCZ         0.0733 
@<TRIPOS>BOND
     1    1    2 ar   
     2    1   21 ar   
     3    1   25 1    
     4    2    3 ar   
     5    2    7 ar   
     6    3    4 ar   
     7    3   19 ar   
     8    4    5 ar   
     9    4   26 1    
    10    5    6 ar   
    11    5   27 1    
    12    6    7 ar   
    13    6   18 1    
    14    7    8 1    
    15    8    9 2    
    16    8   10 1    
    17   10   11 1    
    18   11   12 1    
    19   11   15 1    
    20   11   28 1    
    21   12   13 1    
    22   12   17 1    
    23   12   29 1    
    24   13   14 2    
    25   13   30 1    
    26   14   15 1    
    27   14   31 1    
    28   15   16 1    
    29   15   32 1    
    30   16   33 1    
    31   17   34 1    
    32   18   35 1    
    33   19   20 ar   
    34   19   24 1    
    35   20   21 ar   
    36   20   36 1    
    37   21   22 1    
    38   22   23 1    
    39   23   37 1    
    40   23   38 1    
    41   23   39 1    
    42   24   40 1    
    43   24   41 1    
    44   24   42 1    
@<TRIPOS>SUBSTRUCTURE
     1 NCZ         1 GROUP             0       ****    0 ROOT    
