@<TRIPOS>MOLECULE
NCZ
42   44    1
SMALL
USER_CHARGES


@<TRIPOS>ATOM
      1 C1          0.1580   10.7870    2.3218 C.ar      1 NCZ        -0.1709 
      2 C6          0.1589    9.3572    2.2666 C.ar      1 NCZ         0.0726 
      3 C5          0.5580    8.6577    3.4626 C.ar      1 NCZ        -0.0959 
      4 C7          0.5057    7.2410    3.4698 C.ar      1 NCZ        -0.0424 
      5 C8          0.0559    6.5436    2.3638 C.ar      1 NCZ        -0.2379 
      6 C9         -0.2670    7.1958    1.1850 C.ar      1 NCZ         0.2611 
      7 C10        -0.1978    8.5997    1.0825 C.ar      1 NCZ        -0.3060 
      8 C11        -0.4356    9.2593   -0.2520 C.2       1 NCZ         0.6421 
      9 O3         -1.0570   10.3122   -0.4044 O.2       1 NCZ        -0.4040 
     10 O4          0.2070    8.6009   -1.2641 O.3       1 NCZ        -0.3226 
     11 C12         0.4512    9.1278   -2.5814 C.3       1 NCZ         0.0648 
     12 C13         1.5756   10.1764   -2.5758 C.3       1 NCZ         0.2089 
     13 C14         0.9441   11.3591   -3.2740 C.2       1 NCZ        -0.2040 
     14 C15        -0.3035   11.0970   -3.7036 C.2       1 NCZ        -0.2040 
     15 C16        -0.7502    9.6898   -3.3690 C.3       1 NCZ         0.2089 
     16 O6         -1.0426    8.9429   -4.5327 O.3       1 NCZ        -0.6331 
     17 O5          2.7437    9.7418   -3.2386 O.3       1 NCZ        -0.6331 
     18 O2         -0.6420    6.3967    0.1334 O.3       1 NCZ        -0.5507 
     19 C4          0.9308    9.4007    4.6281 C.ar      1 NCZ        -0.0224 
     20 C3          0.8793   10.7908    4.6144 C.ar      1 NCZ        -0.1967 
     21 C2          0.4886   11.4922    3.4838 C.ar      1 NCZ         0.1767 
     22 O1          0.4529   12.8690    3.5964 O.3       1 NCZ        -0.3596 
     23 C17        -0.0249   13.6475    2.5031 C.3       1 NCZ         0.1374 
     24 C18         1.3533    8.6826    5.9042 C.3       1 NCZ        -0.1312 
     25 H1         -0.1144   11.3503    1.4495 H         1 NCZ         0.1606 
     26 H7          0.7769    6.6840    4.3546 H         1 NCZ         0.1348 
     27 H8         -0.0007    5.4654    2.4090 H         1 NCZ         0.1341 
     28 H12         0.8155    8.2402   -3.1035 H         1 NCZ         0.1032 
     29 H13         1.8368   10.4549   -1.5532 H         1 NCZ         0.0836 
     30 H14         1.4744   12.2931   -3.3876 H         1 NCZ         0.1528 
     31 H15        -0.9512   11.7922   -4.2172 H         1 NCZ         0.1528 
     32 H16        -1.6503    9.7419   -2.7581 H         1 NCZ         0.0836 
     33 H6         -1.2475    9.5625   -5.2381 H         1 NCZ         0.4243 
     34 H5          2.9578    8.8428   -2.9269 H         1 NCZ         0.4243 
     35 H2         -0.1648    6.6500   -0.6647 H         1 NCZ         0.4084 
     36 H3          1.1422   11.3464    5.5027 H         1 NCZ         0.1346 
     37 H171       -0.0415   14.6994    2.7882 H         1 NCZ         0.0417 
     38 H172       -1.0420   13.3669    2.2246 H         1 NCZ         0.0417 
     39 H173        0.6252   13.5532    1.6318 H         1 NCZ         0.0417 
     40 H181        1.6705    9.3810    6.6793 H         1 NCZ         0.0733 
     41 H182        2.1884    8.0093    5.7079 H         1 NCZ         0.0733 
     42 H183        0.5227    8.0982    6.3021 H         1 NCZ         0.0733 
@<TRIPOS>BOND
     1    1    2 ar   
     2    1   21 ar   
     3    1   25 1    
     4    2    3 ar   
     5    2    7 ar   
     6    3    4 ar   
     7    3   19 ar   
     8    4    5 ar   
     9    4   26 1    
    10    5    6 ar   
    11    5   27 1    
    12    6    7 ar   
    13    6   18 1    
    14    7    8 1    
    15    8    9 2    
    16    8   10 1    
    17   10   11 1    
    18   11   12 1    
    19   11   15 1    
    20   11   28 1    
    21   12   13 1    
    22   12   17 1    
    23   12   29 1    
    24   13   14 2    
    25   13   30 1    
    26   14   15 1    
    27   14   31 1    
    28   15   16 1    
    29   15   32 1    
    30   16   33 1    
    31   17   34 1    
    32   18   35 1    
    33   19   20 ar   
    34   19   24 1    
    35   20   21 ar   
    36   20   36 1    
    37   21   22 1    
    38   22   23 1    
    39   23   37 1    
    40   23   38 1    
    41   23   39 1    
    42   24   40 1    
    43   24   41 1    
    44   24   42 1    
@<TRIPOS>SUBSTRUCTURE
     1 NCZ         1 GROUP             0       ****    0 ROOT    
