@<TRIPOS>MOLECULE
NCZ
42   44    1
SMALL
USER_CHARGES


@<TRIPOS>ATOM
      1 C1          0.2748   10.2454   -3.0376 C.ar      1 NCZ        -0.1709 
      2 C6         -0.0305    8.8655   -2.8447 C.ar      1 NCZ         0.0726 
      3 C5          0.0151    8.3546   -1.5043 C.ar      1 NCZ        -0.0959 
      4 C7         -0.2421    6.9764   -1.2903 C.ar      1 NCZ        -0.0424 
      5 C8         -0.5669    6.1418   -2.3442 C.ar      1 NCZ        -0.2379 
      6 C9         -0.6411    6.6269   -3.6410 C.ar      1 NCZ         0.2611 
      7 C10        -0.3761    7.9764   -3.9264 C.ar      1 NCZ        -0.3060 
      8 C11        -0.4786    8.4300   -5.3448 C.2       1 NCZ         0.6421 
      9 O3         -1.2562    9.3079   -5.7224 O.2       1 NCZ        -0.4040 
     10 O4          0.4069    7.7795   -6.1395 O.3       1 NCZ        -0.3226 
     11 C12         0.4050    7.9113   -7.5630 C.3       1 NCZ         0.0648 
     12 C13        -0.0686    6.6074   -8.2184 C.3       1 NCZ         0.2089 
     13 C14         0.8014    6.5473   -9.4541 C.2       1 NCZ        -0.2040 
     14 C15         1.8372    7.4018   -9.3730 C.2       1 NCZ        -0.2040 
     15 C16         1.8243    8.1683   -8.0698 C.3       1 NCZ         0.2089 
     16 O6          2.0990    9.5421   -8.2490 O.3       1 NCZ        -0.6331 
     17 O5         -1.4420    6.6137   -8.5402 O.3       1 NCZ        -0.6331 
     18 O2         -1.0422    5.7418   -4.6096 O.3       1 NCZ        -0.5507 
     19 C4          0.3219    9.2376   -0.4258 C.ar      1 NCZ        -0.0224 
     20 C3          0.6068   10.5758   -0.6781 C.ar      1 NCZ        -0.1967 
     21 C2          0.5977   11.0871   -1.9781 C.ar      1 NCZ         0.1767 
     22 O1          0.8895   12.3990   -2.2978 O.3       1 NCZ        -0.3596 
     23 C17         1.2611   13.2980   -1.2586 C.3       1 NCZ         0.1374 
     24 C18         0.3402    8.7225    1.0094 C.3       1 NCZ        -0.1312 
     25 H1          0.2670   10.6638   -4.0318 H         1 NCZ         0.1606 
     26 H7         -0.1719    6.5526   -0.3000 H         1 NCZ         0.1348 
     27 H8         -0.7589    5.0991   -2.1347 H         1 NCZ         0.1341 
     28 H12        -0.2387    8.7357   -7.8794 H         1 NCZ         0.1032 
     29 H13         0.1553    5.7427   -7.5879 H         1 NCZ         0.0836 
     30 H14         0.6031    5.8558  -10.2598 H         1 NCZ         0.1528 
     31 H15         2.6247    7.5263  -10.1016 H         1 NCZ         0.1528 
     32 H16         2.5578    7.7242   -7.3957 H         1 NCZ         0.0836 
     33 H6          2.1062    9.9660   -7.3877 H         1 NCZ         0.4243 
     34 H5         -1.9564    6.7469   -7.7383 H         1 NCZ         0.4243 
     35 H2         -1.1814    4.8657   -4.2296 H         1 NCZ         0.4084 
     36 H3          0.8456   11.2125    0.1591 H         1 NCZ         0.1346 
     37 H171        1.5023   14.2695   -1.6900 H         1 NCZ         0.0417 
     38 H172        2.1420   12.9441   -0.7200 H         1 NCZ         0.0417 
     39 H173        0.4449   13.4466   -0.5501 H         1 NCZ         0.0417 
     40 H181        0.5588    9.5135    1.7270 H         1 NCZ         0.0733 
     41 H182        1.0991    7.9463    1.1237 H         1 NCZ         0.0733 
     42 H183       -0.6284    8.2985    1.2752 H         1 NCZ         0.0733 
@<TRIPOS>BOND
     1    1    2 ar   
     2    1   21 ar   
     3    1   25 1    
     4    2    3 ar   
     5    2    7 ar   
     6    3    4 ar   
     7    3   19 ar   
     8    4    5 ar   
     9    4   26 1    
    10    5    6 ar   
    11    5   27 1    
    12    6    7 ar   
    13    6   18 1    
    14    7    8 1    
    15    8    9 2    
    16    8   10 1    
    17   10   11 1    
    18   11   12 1    
    19   11   15 1    
    20   11   28 1    
    21   12   13 1    
    22   12   17 1    
    23   12   29 1    
    24   13   14 2    
    25   13   30 1    
    26   14   15 1    
    27   14   31 1    
    28   15   16 1    
    29   15   32 1    
    30   16   33 1    
    31   17   34 1    
    32   18   35 1    
    33   19   20 ar   
    34   19   24 1    
    35   20   21 ar   
    36   20   36 1    
    37   21   22 1    
    38   22   23 1    
    39   23   37 1    
    40   23   38 1    
    41   23   39 1    
    42   24   40 1    
    43   24   41 1    
    44   24   42 1    
@<TRIPOS>SUBSTRUCTURE
     1 NCZ         1 GROUP             0       ****    0 ROOT    
