@<TRIPOS>MOLECULE
NCZ
42   44    1
SMALL
USER_CHARGES


@<TRIPOS>ATOM
      1 C1          0.1425   13.5627   -2.9022 C.ar      1 NCZ        -0.1709 
      2 C6          0.7002   12.3119   -2.4952 C.ar      1 NCZ         0.0726 
      3 C5          0.7342   12.0305   -1.0876 C.ar      1 NCZ        -0.0959 
      4 C7          1.2602   10.7879   -0.6528 C.ar      1 NCZ        -0.0424 
      5 C8          1.7564    9.8684   -1.5614 C.ar      1 NCZ        -0.2379 
      6 C9          1.7492   10.1352   -2.9197 C.ar      1 NCZ         0.2611 
      7 C10         1.2214   11.3369   -3.4268 C.ar      1 NCZ        -0.3060 
      8 C11         1.2246   11.5786   -4.9158 C.2       1 NCZ         0.6421 
      9 O3          1.6348   12.6189   -5.4268 O.2       1 NCZ        -0.4040 
     10 O4          0.7998   10.5447   -5.6984 O.3       1 NCZ        -0.3226 
     11 C12        -0.3240    9.7121   -5.3756 C.3       1 NCZ         0.0648 
     12 C13        -0.1710    8.3565   -6.0740 C.3       1 NCZ         0.2089 
     13 C14        -1.6005    8.0270   -6.4375 C.2       1 NCZ        -0.2040 
     14 C15        -2.4065    9.0975   -6.3142 C.2       1 NCZ        -0.2040 
     15 C16        -1.6449   10.3224   -5.8575 C.3       1 NCZ         0.2089 
     16 O6         -2.3167   11.0257   -4.8332 O.3       1 NCZ        -0.6331 
     17 O5          0.4135    7.3594   -5.2602 O.3       1 NCZ        -0.6331 
     18 O2          2.2682    9.1705   -3.7393 O.3       1 NCZ        -0.5507 
     19 C4          0.2332   13.0023   -0.1646 C.ar      1 NCZ        -0.0224 
     20 C3         -0.2604   14.2178   -0.6270 C.ar      1 NCZ        -0.1967 
     21 C2         -0.3147   14.5081   -1.9914 C.ar      1 NCZ         0.1767 
     22 O1         -0.8087   15.6851   -2.5196 O.3       1 NCZ        -0.3596 
     23 C17        -1.0632   16.7839   -1.6522 C.3       1 NCZ         0.1374 
     24 C18         0.2295   12.7215    1.3346 C.3       1 NCZ        -0.1312 
     25 H1          0.0758   13.8126   -3.9481 H         1 NCZ         0.1606 
     26 H7          1.2924   10.5438    0.3970 H         1 NCZ         0.1348 
     27 H8          2.1628    8.9326   -1.1993 H         1 NCZ         0.1341 
     28 H12        -0.3774    9.5426   -4.2978 H         1 NCZ         0.1032 
     29 H13         0.4117    8.4628   -6.9912 H         1 NCZ         0.0836 
     30 H14        -1.8889    7.0460   -6.7831 H         1 NCZ         0.1528 
     31 H15        -3.4609    9.1234   -6.5473 H         1 NCZ         0.1528 
     32 H16        -1.4794   10.9789   -6.7139 H         1 NCZ         0.0836 
     33 H6         -3.1580   11.3461   -5.1694 H         1 NCZ         0.4243 
     34 H5          1.2006    7.7278   -4.8395 H         1 NCZ         0.4243 
     35 H2          2.5439    8.3631   -3.2529 H         1 NCZ         0.4084 
     36 H3         -0.6229   14.9349    0.0949 H         1 NCZ         0.1346 
     37 H171       -1.4111   17.6328   -2.2446 H         1 NCZ         0.0417 
     38 H172       -0.1552   17.0995   -1.1335 H         1 NCZ         0.0417 
     39 H173       -1.8377   16.5600   -0.9198 H         1 NCZ         0.0417 
     40 H181       -0.2067   13.5455    1.9031 H         1 NCZ         0.0733 
     41 H182        1.2485   12.5762    1.6924 H         1 NCZ         0.0733 
     42 H183       -0.3512   11.8264    1.5589 H         1 NCZ         0.0733 
@<TRIPOS>BOND
     1    1    2 ar   
     2    1   21 ar   
     3    1   25 1    
     4    2    3 ar   
     5    2    7 ar   
     6    3    4 ar   
     7    3   19 ar   
     8    4    5 ar   
     9    4   26 1    
    10    5    6 ar   
    11    5   27 1    
    12    6    7 ar   
    13    6   18 1    
    14    7    8 1    
    15    8    9 2    
    16    8   10 1    
    17   10   11 1    
    18   11   12 1    
    19   11   15 1    
    20   11   28 1    
    21   12   13 1    
    22   12   17 1    
    23   12   29 1    
    24   13   14 2    
    25   13   30 1    
    26   14   15 1    
    27   14   31 1    
    28   15   16 1    
    29   15   32 1    
    30   16   33 1    
    31   17   34 1    
    32   18   35 1    
    33   19   20 ar   
    34   19   24 1    
    35   20   21 ar   
    36   20   36 1    
    37   21   22 1    
    38   22   23 1    
    39   23   37 1    
    40   23   38 1    
    41   23   39 1    
    42   24   40 1    
    43   24   41 1    
    44   24   42 1    
@<TRIPOS>SUBSTRUCTURE
     1 NCZ         1 GROUP             0       ****    0 ROOT    
