@<TRIPOS>MOLECULE
NCZ
42   44    1
SMALL
USER_CHARGES


@<TRIPOS>ATOM
      1 C1         -0.6487   11.3513   -2.0305 C.ar      1 NCZ        -0.1709 
      2 C6         -0.6018   10.4467   -3.1337 C.ar      1 NCZ         0.0726 
      3 C5         -1.0190   10.9303   -4.4163 C.ar      1 NCZ        -0.0959 
      4 C7         -0.9523   10.0480   -5.5278 C.ar      1 NCZ        -0.0424 
      5 C8         -0.4451    8.7643   -5.3910 C.ar      1 NCZ        -0.2379 
      6 C9         -0.0173    8.2908   -4.1601 C.ar      1 NCZ         0.2611 
      7 C10        -0.1431    9.0880   -3.0088 C.ar      1 NCZ        -0.3060 
      8 C11         0.1922    8.4933   -1.6847 C.2       1 NCZ         0.6421 
      9 O3          1.0466    8.9563   -0.9296 O.2       1 NCZ        -0.4040 
     10 O4         -0.6420    7.4628   -1.3903 O.3       1 NCZ        -0.3226 
     11 C12        -0.4112    6.5647   -0.3050 C.3       1 NCZ         0.0648 
     12 C13        -1.4904    5.4680   -0.3059 C.3       1 NCZ         0.2089 
     13 C14        -1.7710    5.2725    1.1650 C.2       1 NCZ        -0.2040 
     14 C15        -1.1643    6.2016    1.9245 C.2       1 NCZ        -0.2040 
     15 C16        -0.3650    7.1879    1.1007 C.3       1 NCZ         0.2089 
     16 O6          0.9520    7.3424    1.5996 O.3       1 NCZ        -0.6331 
     17 O5         -1.0739    4.2729   -0.9325 O.3       1 NCZ        -0.6331 
     18 O2          0.5573    7.0399   -4.1363 O.3       1 NCZ        -0.5507 
     19 C4         -1.4765   12.2806   -4.5343 C.ar      1 NCZ        -0.0224 
     20 C3         -1.4681   13.1221   -3.4251 C.ar      1 NCZ        -0.1967 
     21 C2         -1.0439   12.6816   -2.1804 C.ar      1 NCZ         0.1767 
     22 O1         -1.0420   13.6125   -1.1602 O.3       1 NCZ        -0.3596 
     23 C17        -0.6019   13.2289    0.1395 C.3       1 NCZ         0.1374 
     24 C18        -1.9558   12.8199   -5.8751 C.3       1 NCZ        -0.1312 
     25 H1         -0.3356   11.0076   -1.0599 H         1 NCZ         0.1606 
     26 H7         -1.2583   10.3835   -6.5070 H         1 NCZ         0.1348 
     27 H8         -0.3588    8.1324   -6.2623 H         1 NCZ         0.1341 
     28 H12         0.5579    6.1420   -0.5400 H         1 NCZ         0.1032 
     29 H13        -2.4007    5.8240   -0.7894 H         1 NCZ         0.0836 
     30 H14        -2.4171    4.4855    1.5257 H         1 NCZ         0.1528 
     31 H15        -1.2337    6.2820    3.0004 H         1 NCZ         0.1528 
     32 H16        -0.8748    8.1528    1.1057 H         1 NCZ         0.0836 
     33 H6          1.5831    7.1773    0.8803 H         1 NCZ         0.4243 
     34 H5         -1.7684    3.6065   -0.8938 H         1 NCZ         0.4243 
     35 H2          1.2284    6.9399   -3.4384 H         1 NCZ         0.4084 
     36 H3         -1.7911   14.1480   -3.5271 H         1 NCZ         0.1346 
     37 H171       -0.6438   14.0935    0.8022 H         1 NCZ         0.0417 
     38 H172        0.4307   12.8762    0.1266 H         1 NCZ         0.0417 
     39 H173       -1.2428   12.4563    0.5662 H         1 NCZ         0.0417 
     40 H181       -2.3008   13.8522   -5.8002 H         1 NCZ         0.0733 
     41 H182       -2.7869   12.2231   -6.2492 H         1 NCZ         0.0733 
     42 H183       -1.1483   12.7919   -6.6070 H         1 NCZ         0.0733 
@<TRIPOS>BOND
     1    1    2 ar   
     2    1   21 ar   
     3    1   25 1    
     4    2    3 ar   
     5    2    7 ar   
     6    3    4 ar   
     7    3   19 ar   
     8    4    5 ar   
     9    4   26 1    
    10    5    6 ar   
    11    5   27 1    
    12    6    7 ar   
    13    6   18 1    
    14    7    8 1    
    15    8    9 2    
    16    8   10 1    
    17   10   11 1    
    18   11   12 1    
    19   11   15 1    
    20   11   28 1    
    21   12   13 1    
    22   12   17 1    
    23   12   29 1    
    24   13   14 2    
    25   13   30 1    
    26   14   15 1    
    27   14   31 1    
    28   15   16 1    
    29   15   32 1    
    30   16   33 1    
    31   17   34 1    
    32   18   35 1    
    33   19   20 ar   
    34   19   24 1    
    35   20   21 ar   
    36   20   36 1    
    37   21   22 1    
    38   22   23 1    
    39   23   37 1    
    40   23   38 1    
    41   23   39 1    
    42   24   40 1    
    43   24   41 1    
    44   24   42 1    
@<TRIPOS>SUBSTRUCTURE
     1 NCZ         1 GROUP             0       ****    0 ROOT    
