@<TRIPOS>MOLECULE
NCZ
42   44    1
SMALL
USER_CHARGES


@<TRIPOS>ATOM
      1 C1         -0.6113   11.3926   -2.0593 C.ar      1 NCZ        -0.1709 
      2 C6         -0.5415   10.4922   -3.1650 C.ar      1 NCZ         0.0726 
      3 C5         -0.9447   10.9784   -4.4523 C.ar      1 NCZ        -0.0959 
      4 C7         -0.8728   10.0975   -5.5641 C.ar      1 NCZ        -0.0424 
      5 C8         -0.3870    8.8065   -5.4213 C.ar      1 NCZ        -0.2379 
      6 C9          0.0266    8.3288   -4.1871 C.ar      1 NCZ         0.2611 
      7 C10        -0.0820    9.1333   -3.0381 C.ar      1 NCZ        -0.3060 
      8 C11         0.2503    8.5397   -1.7115 C.2       1 NCZ         0.6421 
      9 O3          1.0760    9.0151   -0.9326 O.2       1 NCZ        -0.4040 
     10 O4         -0.5697    7.4916   -1.4444 O.3       1 NCZ        -0.3226 
     11 C12        -0.3958    6.6168   -0.3313 C.3       1 NCZ         0.0648 
     12 C13        -1.5013    5.5540   -0.3546 C.3       1 NCZ         0.2089 
     13 C14        -1.8416    5.3947    1.1069 C.2       1 NCZ        -0.2040 
     14 C15        -1.2460    6.3252    1.8726 C.2       1 NCZ        -0.2040 
     15 C16        -0.3990    7.2764    1.0589 C.3       1 NCZ         0.2089 
     16 O6          0.8980    7.4263    1.6048 O.3       1 NCZ        -0.6331 
     17 O5         -1.1087    4.3297   -0.9333 O.3       1 NCZ        -0.6331 
     18 O2          0.5579    7.0589   -4.1582 O.3       1 NCZ        -0.5507 
     19 C4         -1.4003   12.3287   -4.5748 C.ar      1 NCZ        -0.0224 
     20 C3         -1.4196   13.1644   -3.4608 C.ar      1 NCZ        -0.1967 
     21 C2         -1.0182   12.7197   -2.2096 C.ar      1 NCZ         0.1767 
     22 O1         -1.0419   13.6459   -1.1850 O.3       1 NCZ        -0.3596 
     23 C17        -0.5994   13.2671    0.1149 C.3       1 NCZ         0.1374 
     24 C18        -1.8523   12.8738   -5.9242 C.3       1 NCZ        -0.1312 
     25 H1         -0.3154   11.0466   -1.0840 H         1 NCZ         0.1606 
     26 H7         -1.1734   10.4338   -6.5451 H         1 NCZ         0.1348 
     27 H8         -0.3101    8.1701   -6.2906 H         1 NCZ         0.1341 
     28 H12         0.5580    6.1421   -0.5168 H         1 NCZ         0.1032 
     29 H13        -2.3842    5.9218   -0.8746 H         1 NCZ         0.0836 
     30 H14        -2.5139    4.6228    1.4536 H         1 NCZ         0.1528 
     31 H15        -1.3527    6.4273    2.9430 H         1 NCZ         0.1528 
     32 H16        -0.8954    8.2474    1.0195 H         1 NCZ         0.0836 
     33 H6          1.5511    7.3154    0.8961 H         1 NCZ         0.4243 
     34 H5         -0.8055    4.4679   -1.8368 H         1 NCZ         0.4243 
     35 H2          1.2330    6.9410   -3.4668 H         1 NCZ         0.4084 
     36 H3         -1.7447   14.1892   -3.5646 H         1 NCZ         0.1346 
     37 H171       -0.6418   14.1320    0.7770 H         1 NCZ         0.0417 
     38 H172        0.4344   12.9182    0.1030 H         1 NCZ         0.0417 
     39 H173       -1.2370   12.4925    0.5433 H         1 NCZ         0.0417 
     40 H181       -2.1848   13.9099   -5.8534 H         1 NCZ         0.0733 
     41 H182       -2.6859   12.2875   -6.3123 H         1 NCZ         0.0733 
     42 H183       -1.0341   12.8377   -6.6438 H         1 NCZ         0.0733 
@<TRIPOS>BOND
     1    1    2 ar   
     2    1   21 ar   
     3    1   25 1    
     4    2    3 ar   
     5    2    7 ar   
     6    3    4 ar   
     7    3   19 ar   
     8    4    5 ar   
     9    4   26 1    
    10    5    6 ar   
    11    5   27 1    
    12    6    7 ar   
    13    6   18 1    
    14    7    8 1    
    15    8    9 2    
    16    8   10 1    
    17   10   11 1    
    18   11   12 1    
    19   11   15 1    
    20   11   28 1    
    21   12   13 1    
    22   12   17 1    
    23   12   29 1    
    24   13   14 2    
    25   13   30 1    
    26   14   15 1    
    27   14   31 1    
    28   15   16 1    
    29   15   32 1    
    30   16   33 1    
    31   17   34 1    
    32   18   35 1    
    33   19   20 ar   
    34   19   24 1    
    35   20   21 ar   
    36   20   36 1    
    37   21   22 1    
    38   22   23 1    
    39   23   37 1    
    40   23   38 1    
    41   23   39 1    
    42   24   40 1    
    43   24   41 1    
    44   24   42 1    
@<TRIPOS>SUBSTRUCTURE
     1 NCZ         1 GROUP             0       ****    0 ROOT    
