@<TRIPOS>MOLECULE
NCZ
42   44    1
SMALL
USER_CHARGES


@<TRIPOS>ATOM
      1 C1          0.2335    8.7797    2.0218 C.ar      1 NCZ        -0.1709 
      2 C6          0.1245   10.1780    2.2914 C.ar      1 NCZ         0.0726 
      3 C5          0.3500   10.6214    3.6384 C.ar      1 NCZ        -0.0959 
      4 C7          0.2305   12.0066    3.9253 C.ar      1 NCZ        -0.0424 
      5 C8         -0.0971   12.9161    2.9308 C.ar      1 NCZ        -0.2379 
      6 C9         -0.3127   12.4991    1.6258 C.ar      1 NCZ         0.2611 
      7 C10        -0.2206   11.1425    1.2805 C.ar      1 NCZ        -0.3060 
      8 C11        -0.4805   10.7352   -0.1305 C.2       1 NCZ         0.6421 
      9 O3         -1.4193   10.0115   -0.4667 O.2       1 NCZ        -0.4040 
     10 O4          0.4950   11.1855   -0.9520 O.3       1 NCZ        -0.3226 
     11 C12         0.5715   10.7940   -2.3237 C.3       1 NCZ         0.0648 
     12 C13         1.3636    9.4895   -2.4739 C.3       1 NCZ         0.2089 
     13 C14         2.1576    9.7430   -3.7328 C.2       1 NCZ        -0.2040 
     14 C15         2.1281   11.0369   -4.0984 C.2       1 NCZ        -0.2040 
     15 C16         1.3193   11.8660   -3.1253 C.3       1 NCZ         0.2089 
     16 O6          0.4543   12.7717   -3.7781 O.3       1 NCZ        -0.6331 
     17 O5          0.5578    8.3362   -2.5803 O.3       1 NCZ        -0.6331 
     18 O2         -0.6420   13.4600    0.7030 O.3       1 NCZ        -0.5507 
     19 C4          0.6894    9.6586    4.6425 C.ar      1 NCZ        -0.0224 
     20 C3          0.7909    8.3084    4.3138 C.ar      1 NCZ        -0.1967 
     21 C2          0.5580    7.8604    3.0124 C.ar      1 NCZ         0.1767 
     22 O1          0.5847    6.5384    2.6253 O.3       1 NCZ        -0.3596 
     23 C17         1.0026    5.5390    3.5465 C.3       1 NCZ         0.1374 
     24 C18         0.9440   10.0955    6.0796 C.3       1 NCZ        -0.1312 
     25 H1          0.0674    8.4010    1.0237 H         1 NCZ         0.1606 
     26 H7          0.3969   12.3700    4.9283 H         1 NCZ         0.1348 
     27 H8         -0.1787   13.9634    3.1832 H         1 NCZ         0.1341 
     28 H12        -0.4346   10.6753   -2.7328 H         1 NCZ         0.1032 
     29 H13         2.0641    9.3591   -1.6451 H         1 NCZ         0.0836 
     30 H14         2.7008    8.9400   -4.2093 H         1 NCZ         0.1528 
     31 H15         2.6483   11.4749   -4.9374 H         1 NCZ         0.1528 
     32 H16         2.0064   12.4206   -2.4823 H         1 NCZ         0.0836 
     33 H6          0.9886   13.4401   -4.2131 H         1 NCZ         0.4243 
     34 H5          1.1725    7.5829   -2.5191 H         1 NCZ         0.4243 
     35 H2         -0.8838   14.2965    1.1092 H         1 NCZ         0.4084 
     36 H3          1.0412    7.6029    5.0914 H         1 NCZ         0.1346 
     37 H171        0.9572    4.5608    3.0664 H         1 NCZ         0.0417 
     38 H172        0.3516    5.4999    4.4208 H         1 NCZ         0.0417 
     39 H173        2.0332    5.7035    3.8663 H         1 NCZ         0.0417 
     40 H181        1.1895    9.2511    6.7246 H         1 NCZ         0.0733 
     41 H182        0.0591   10.5785    6.4948 H         1 NCZ         0.0733 
     42 H183        1.7793   10.7949    6.1228 H         1 NCZ         0.0733 
@<TRIPOS>BOND
     1    1    2 ar   
     2    1   21 ar   
     3    1   25 1    
     4    2    3 ar   
     5    2    7 ar   
     6    3    4 ar   
     7    3   19 ar   
     8    4    5 ar   
     9    4   26 1    
    10    5    6 ar   
    11    5   27 1    
    12    6    7 ar   
    13    6   18 1    
    14    7    8 1    
    15    8    9 2    
    16    8   10 1    
    17   10   11 1    
    18   11   12 1    
    19   11   15 1    
    20   11   28 1    
    21   12   13 1    
    22   12   17 1    
    23   12   29 1    
    24   13   14 2    
    25   13   30 1    
    26   14   15 1    
    27   14   31 1    
    28   15   16 1    
    29   15   32 1    
    30   16   33 1    
    31   17   34 1    
    32   18   35 1    
    33   19   20 ar   
    34   19   24 1    
    35   20   21 ar   
    36   20   36 1    
    37   21   22 1    
    38   22   23 1    
    39   23   37 1    
    40   23   38 1    
    41   23   39 1    
    42   24   40 1    
    43   24   41 1    
    44   24   42 1    
@<TRIPOS>SUBSTRUCTURE
     1 NCZ         1 GROUP             0       ****    0 ROOT    
