@<TRIPOS>MOLECULE
NCZ
42   44    1
SMALL
USER_CHARGES


@<TRIPOS>ATOM
      1 C1         -0.4213   10.9865    2.2481 C.ar      1 NCZ        -0.1709 
      2 C6          0.1558   10.7597    0.9733 C.ar      1 NCZ         0.0726 
      3 C5          0.9502   11.8088    0.4103 C.ar      1 NCZ        -0.0959 
      4 C7          1.5654   11.5666   -0.8463 C.ar      1 NCZ        -0.0424 
      5 C8          1.4355   10.3393   -1.4890 C.ar      1 NCZ        -0.2379 
      6 C9          0.6559    9.3247   -0.9515 C.ar      1 NCZ         0.2611 
      7 C10        -0.0206    9.5224    0.2585 C.ar      1 NCZ        -0.3060 
      8 C11        -0.9046    8.4409    0.7767 C.2       1 NCZ         0.6421 
      9 O3         -2.1298    8.4665    0.6665 O.2       1 NCZ        -0.4040 
     10 O4         -0.2262    7.5185    1.4919 O.3       1 NCZ        -0.3226 
     11 C12        -0.9134    6.4477    2.1516 C.3       1 NCZ         0.0648 
     12 C13        -0.0666    5.8962    3.2976 C.3       1 NCZ         0.2089 
     13 C14        -0.0032    4.4243    2.9911 C.2       1 NCZ        -0.2040 
     14 C15        -0.6422    4.0888    1.8629 C.2       1 NCZ        -0.2040 
     15 C16        -1.2571    5.2893    1.2015 C.3       1 NCZ         0.2089 
     16 O6         -2.6411    5.1177    1.0666 O.3       1 NCZ        -0.6331 
     17 O5         -0.6409    6.1413    4.5637 O.3       1 NCZ        -0.6331 
     18 O2          0.5580    8.1418   -1.6452 O.3       1 NCZ        -0.5507 
     19 C4          1.0882   13.0384    1.1430 C.ar      1 NCZ        -0.0224 
     20 C3          0.4875   13.1906    2.3889 C.ar      1 NCZ        -0.1967 
     21 C2         -0.2420   12.1669    2.9601 C.ar      1 NCZ         0.1767 
     22 O1         -0.7838   12.3678    4.2092 O.3       1 NCZ        -0.3596 
     23 C17        -0.5182   11.3555    5.1760 C.3       1 NCZ         0.1374 
     24 C18         1.9520   14.1827    0.6503 C.3       1 NCZ        -0.1312 
     25 H1         -1.0337   10.2198    2.6666 H         1 NCZ         0.1606 
     26 H7          2.1589   12.3327   -1.3149 H         1 NCZ         0.1348 
     27 H8          1.9415   10.1755   -2.4296 H         1 NCZ         0.1341 
     28 H12        -1.8312    6.8642    2.5720 H         1 NCZ         0.1032 
     29 H13         0.9448    6.3076    3.2708 H         1 NCZ         0.0836 
     30 H14         0.5441    3.7483    3.6070 H         1 NCZ         0.1528 
     31 H15        -0.7040    3.1007    1.4286 H         1 NCZ         0.1528 
     32 H16        -0.8011    5.4388    0.2200 H         1 NCZ         0.0836 
     33 H6         -3.0104    4.9419    1.9416 H         1 NCZ         0.4243 
     34 H5         -1.5047    5.7168    4.5953 H         1 NCZ         0.4243 
     35 H2          1.4258    7.7300   -1.8249 H         1 NCZ         0.4084 
     36 H3          0.6148   14.1087    2.9438 H         1 NCZ         0.1346 
     37 H171       -0.8618   11.6933    6.1534 H         1 NCZ         0.0417 
     38 H172        0.5507   11.1491    5.2567 H         1 NCZ         0.0417 
     39 H173       -1.0354   10.4227    4.9558 H         1 NCZ         0.0417 
     40 H181        1.5899   15.1396    1.0289 H         1 NCZ         0.0733 
     41 H182        1.9799   14.2691   -0.4338 H         1 NCZ         0.0733 
     42 H183        2.9558   14.0315    1.0498 H         1 NCZ         0.0733 
@<TRIPOS>BOND
     1    1    2 ar   
     2    1   21 ar   
     3    1   25 1    
     4    2    3 ar   
     5    2    7 ar   
     6    3    4 ar   
     7    3   19 ar   
     8    4    5 ar   
     9    4   26 1    
    10    5    6 ar   
    11    5   27 1    
    12    6    7 ar   
    13    6   18 1    
    14    7    8 1    
    15    8    9 2    
    16    8   10 1    
    17   10   11 1    
    18   11   12 1    
    19   11   15 1    
    20   11   28 1    
    21   12   13 1    
    22   12   17 1    
    23   12   29 1    
    24   13   14 2    
    25   13   30 1    
    26   14   15 1    
    27   14   31 1    
    28   15   16 1    
    29   15   32 1    
    30   16   33 1    
    31   17   34 1    
    32   18   35 1    
    33   19   20 ar   
    34   19   24 1    
    35   20   21 ar   
    36   20   36 1    
    37   21   22 1    
    38   22   23 1    
    39   23   37 1    
    40   23   38 1    
    41   23   39 1    
    42   24   40 1    
    43   24   41 1    
    44   24   42 1    
@<TRIPOS>SUBSTRUCTURE
     1 NCZ         1 GROUP             0       ****    0 ROOT    
