@<TRIPOS>MOLECULE
NCZ
42   44    1
SMALL
USER_CHARGES


@<TRIPOS>ATOM
      1 C1          0.1366   10.7169    2.1268 C.ar      1 NCZ        -0.1709 
      2 C6          0.3756   10.8591    0.7259 C.ar      1 NCZ         0.0726 
      3 C5          0.5388   12.1871    0.2077 C.ar      1 NCZ        -0.0959 
      4 C7          0.8238   12.3470   -1.1731 C.ar      1 NCZ        -0.0424 
      5 C8          0.9528   11.2469   -2.0051 C.ar      1 NCZ        -0.2379 
      6 C9          0.7852    9.9580   -1.5228 C.ar      1 NCZ         0.2611 
      7 C10         0.4597    9.7346   -0.1737 C.ar      1 NCZ        -0.3060 
      8 C11         0.1647    8.3428    0.2816 C.2       1 NCZ         0.6421 
      9 O3          0.8420    7.7419    1.1150 O.2       1 NCZ        -0.4040 
     10 O4         -1.0162    7.9035   -0.2315 O.3       1 NCZ        -0.3226 
     11 C12        -1.5768    6.5974   -0.0101 C.3       1 NCZ         0.0648 
     12 C13        -1.7639    6.1969    1.4530 C.3       1 NCZ         0.2089 
     13 C14        -1.5404    4.7061    1.4135 C.2       1 NCZ        -0.2040 
     14 C15        -1.0420    4.3143    0.2316 C.2       1 NCZ        -0.2040 
     15 C16        -0.8778    5.4568   -0.7416 C.3       1 NCZ         0.2089 
     16 O6         -1.4418    5.1181   -1.9892 O.3       1 NCZ        -0.6331 
     17 O5         -3.0510    6.5387    1.8667 O.3       1 NCZ        -0.6331 
     18 O2          0.9580    8.9417   -2.4310 O.3       1 NCZ        -0.5507 
     19 C4          0.4066   13.3032    1.0911 C.ar      1 NCZ        -0.0224 
     20 C3          0.1559   13.0974    2.4443 C.ar      1 NCZ        -0.1967 
     21 C2          0.0424   11.8225    2.9771 C.ar      1 NCZ         0.1767 
     22 O1         -0.1727   11.7392    4.3387 O.3       1 NCZ        -0.3596 
     23 C17         0.0985   10.5100    5.0058 C.3       1 NCZ         0.1374 
     24 C18         0.5407   14.7278    0.5674 C.3       1 NCZ        -0.1312 
     25 H1          0.0296    9.7277    2.5392 H         1 NCZ         0.1606 
     26 H7          0.9581   13.3328   -1.5923 H         1 NCZ         0.1348 
     27 H8          1.1922   11.3965   -3.0477 H         1 NCZ         0.1341 
     28 H12        -2.5715    6.6517   -0.4468 H         1 NCZ         0.1032 
     29 H13        -1.0398    6.6355    2.1362 H         1 NCZ         0.0836 
     30 H14        -1.7243    4.0710    2.2666 H         1 NCZ         0.1528 
     31 H15        -0.7512    3.3157   -0.0358 H         1 NCZ         0.1528 
     32 H16         0.1579    5.7419   -0.8843 H         1 NCZ         0.0836 
     33 H6         -0.8799    4.4517   -2.4079 H         1 NCZ         0.4243 
     34 H5         -3.2923    5.9254    2.5744 H         1 NCZ         0.4243 
     35 H2          1.5218    8.2088   -2.1328 H         1 NCZ         0.4084 
     36 H3          0.0630   13.9454    3.1070 H         1 NCZ         0.1346 
     37 H171        0.0575   10.6711    6.0828 H         1 NCZ         0.0417 
     38 H172        1.0930   10.1289    4.7678 H         1 NCZ         0.0417 
     39 H173       -0.6419    9.7490    4.7657 H         1 NCZ         0.0417 
     40 H181        0.3895   15.4659    1.3554 H         1 NCZ         0.0733 
     41 H182       -0.2011   14.9211   -0.2077 H         1 NCZ         0.0733 
     42 H183        1.5350   14.8886    0.1493 H         1 NCZ         0.0733 
@<TRIPOS>BOND
     1    1    2 ar   
     2    1   21 ar   
     3    1   25 1    
     4    2    3 ar   
     5    2    7 ar   
     6    3    4 ar   
     7    3   19 ar   
     8    4    5 ar   
     9    4   26 1    
    10    5    6 ar   
    11    5   27 1    
    12    6    7 ar   
    13    6   18 1    
    14    7    8 1    
    15    8    9 2    
    16    8   10 1    
    17   10   11 1    
    18   11   12 1    
    19   11   15 1    
    20   11   28 1    
    21   12   13 1    
    22   12   17 1    
    23   12   29 1    
    24   13   14 2    
    25   13   30 1    
    26   14   15 1    
    27   14   31 1    
    28   15   16 1    
    29   15   32 1    
    30   16   33 1    
    31   17   34 1    
    32   18   35 1    
    33   19   20 ar   
    34   19   24 1    
    35   20   21 ar   
    36   20   36 1    
    37   21   22 1    
    38   22   23 1    
    39   23   37 1    
    40   23   38 1    
    41   23   39 1    
    42   24   40 1    
    43   24   41 1    
    44   24   42 1    
@<TRIPOS>SUBSTRUCTURE
     1 NCZ         1 GROUP             0       ****    0 ROOT    
