@<TRIPOS>MOLECULE
NCZ
42   44    1
SMALL
USER_CHARGES


@<TRIPOS>ATOM
      1 C1          0.3342    7.9171    2.3496 C.ar      1 NCZ        -0.1709 
      2 C6         -0.2609    6.7069    1.8668 C.ar      1 NCZ         0.0726 
      3 C5         -0.4819    5.6706    2.8370 C.ar      1 NCZ        -0.0959 
      4 C7         -0.9220    4.4056    2.3779 C.ar      1 NCZ        -0.0424 
      5 C8         -1.2346    4.1845    1.0530 C.ar      1 NCZ        -0.2379 
      6 C9         -1.1312    5.1998    0.1208 C.ar      1 NCZ         0.2611 
      7 C10        -0.6421    6.4770    0.4780 C.ar      1 NCZ        -0.3060 
      8 C11        -0.4375    7.4906   -0.6233 C.2       1 NCZ         0.6421 
      9 O3         -0.2250    7.2020   -1.8033 O.2       1 NCZ        -0.4040 
     10 O4         -0.6560    8.7678   -0.2258 O.3       1 NCZ        -0.3226 
     11 C12        -0.4857    9.8777   -1.1130 C.3       1 NCZ         0.0648 
     12 C13         0.9910   10.2604   -1.3160 C.3       1 NCZ         0.2089 
     13 C14         0.8950   11.7652   -1.4498 C.2       1 NCZ        -0.2040 
     14 C15        -0.2942   12.2287   -1.0223 C.2       1 NCZ        -0.2040 
     15 C16        -1.1766   11.1086   -0.5194 C.3       1 NCZ         0.2089 
     16 O6         -2.5211   11.2462   -0.9335 O.3       1 NCZ        -0.6331 
     17 O5          1.5948    9.6672   -2.4480 O.3       1 NCZ        -0.6331 
     18 O2         -1.5397    4.8703   -1.1491 O.3       1 NCZ        -0.5507 
     19 C4         -0.2488    5.9385    4.2276 C.ar      1 NCZ        -0.0224 
     20 C3          0.2607    7.1658    4.6263 C.ar      1 NCZ        -0.1967 
     21 C2          0.5580    8.1597    3.7010 C.ar      1 NCZ         0.1767 
     22 O1          0.9579    9.4338    4.0484 O.3       1 NCZ        -0.3596 
     23 C17         1.2446    9.7335    5.4106 C.3       1 NCZ         0.1374 
     24 C18        -0.6317    4.9418    5.3172 C.3       1 NCZ        -0.1312 
     25 H1          0.6018    8.7133    1.6791 H         1 NCZ         0.1606 
     26 H7         -1.0413    3.5900    3.0666 H         1 NCZ         0.1348 
     27 H8         -1.5795    3.2059    0.7535 H         1 NCZ         0.1341 
     28 H12        -0.9433    9.6412   -2.0766 H         1 NCZ         0.1032 
     29 H13         1.5792   10.0231   -0.4304 H         1 NCZ         0.0836 
     30 H14         1.7197   12.3574   -1.8200 H         1 NCZ         0.1528 
     31 H15        -0.6024   13.2630   -0.9823 H         1 NCZ         0.1528 
     32 H16        -1.1298   11.0942    0.5720 H         1 NCZ         0.0836 
     33 H6         -3.0573   10.6333   -0.4196 H         1 NCZ         0.4243 
     34 H5          1.8435    8.7494   -2.2479 H         1 NCZ         0.4243 
     35 H2         -1.6478    3.9227   -1.2701 H         1 NCZ         0.4084 
     36 H3          0.3897    7.3470    5.6817 H         1 NCZ         0.1346 
     37 H171        1.6039   10.7598    5.4834 H         1 NCZ         0.0417 
     38 H172        2.0234    9.0832    5.8128 H         1 NCZ         0.0417 
     39 H173        0.3520    9.6525    6.0326 H         1 NCZ         0.0417 
     40 H181       -0.2117    5.2268    6.2817 H         1 NCZ         0.0733 
     41 H182       -0.2420    3.9504    5.0992 H         1 NCZ         0.0733 
     42 H183       -1.7112    4.9046    5.4619 H         1 NCZ         0.0733 
@<TRIPOS>BOND
     1    1    2 ar   
     2    1   21 ar   
     3    1   25 1    
     4    2    3 ar   
     5    2    7 ar   
     6    3    4 ar   
     7    3   19 ar   
     8    4    5 ar   
     9    4   26 1    
    10    5    6 ar   
    11    5   27 1    
    12    6    7 ar   
    13    6   18 1    
    14    7    8 1    
    15    8    9 2    
    16    8   10 1    
    17   10   11 1    
    18   11   12 1    
    19   11   15 1    
    20   11   28 1    
    21   12   13 1    
    22   12   17 1    
    23   12   29 1    
    24   13   14 2    
    25   13   30 1    
    26   14   15 1    
    27   14   31 1    
    28   15   16 1    
    29   15   32 1    
    30   16   33 1    
    31   17   34 1    
    32   18   35 1    
    33   19   20 ar   
    34   19   24 1    
    35   20   21 ar   
    36   20   36 1    
    37   21   22 1    
    38   22   23 1    
    39   23   37 1    
    40   23   38 1    
    41   23   39 1    
    42   24   40 1    
    43   24   41 1    
    44   24   42 1    
@<TRIPOS>SUBSTRUCTURE
     1 NCZ         1 GROUP             0       ****    0 ROOT    
