@<TRIPOS>MOLECULE
NCZ
42   44    1
SMALL
USER_CHARGES


@<TRIPOS>ATOM
      1 C1          0.5865   10.1597   -2.9473 C.ar      1 NCZ        -0.1709 
      2 C6          0.1518    8.8119   -2.7574 C.ar      1 NCZ         0.0726 
      3 C5          0.1122    8.3116   -1.4135 C.ar      1 NCZ        -0.0959 
      4 C7         -0.2509    6.9574   -1.2022 C.ar      1 NCZ        -0.0424 
      5 C8         -0.5982    6.1390   -2.2629 C.ar      1 NCZ        -0.2379 
      6 C9         -0.6048    6.6168   -3.5641 C.ar      1 NCZ         0.2611 
      7 C10        -0.2428    7.9472   -3.8464 C.ar      1 NCZ        -0.3060 
      8 C11        -0.3164    8.4373   -5.2578 C.2       1 NCZ         0.6421 
      9 O3         -0.8965    9.4785   -5.5759 O.2       1 NCZ        -0.4040 
     10 O4          0.3550    7.6366   -6.1296 O.3       1 NCZ        -0.3226 
     11 C12         0.3075    7.8581   -7.5437 C.3       1 NCZ         0.0648 
     12 C13        -1.0457    7.4437   -8.1452 C.3       1 NCZ         0.2089 
     13 C14        -0.6479    6.7780   -9.4427 C.2       1 NCZ        -0.2040 
     14 C15         0.6750    6.5461   -9.4959 C.2       1 NCZ        -0.2040 
     15 C16         1.3793    7.0144   -8.2421 C.3       1 NCZ         0.2089 
     16 O6          2.5546    7.7395   -8.5366 O.3       1 NCZ        -0.6331 
     17 O5         -1.9089    8.5408   -8.3550 O.3       1 NCZ        -0.6331 
     18 O2         -1.0418    5.7417   -4.5299 O.3       1 NCZ        -0.5507 
     19 C4          0.4434    9.1812   -0.3297 C.ar      1 NCZ        -0.0224 
     20 C3          0.8385   10.4915   -0.5810 C.ar      1 NCZ        -0.1967 
     21 C2          0.9316   10.9867   -1.8730 C.ar      1 NCZ         0.1767 
     22 O1          1.3564   12.2953   -2.0020 O.3       1 NCZ        -0.3596 
     23 C17         1.6659   12.8026   -3.2955 C.3       1 NCZ         0.1374 
     24 C18         0.3712    8.6794    1.1077 C.3       1 NCZ        -0.1312 
     25 H1          0.6550   10.5480   -3.9488 H         1 NCZ         0.1606 
     26 H7         -0.2444    6.5387   -0.2072 H         1 NCZ         0.1348 
     27 H8         -0.8677    5.1128   -2.0583 H         1 NCZ         0.1341 
     28 H12         0.4933    8.9174   -7.7360 H         1 NCZ         0.1032 
     29 H13        -1.5354    6.7058   -7.5069 H         1 NCZ         0.0836 
     30 H14        -1.3756    6.5062  -10.1934 H         1 NCZ         0.1528 
     31 H15         1.2081    6.0483  -10.2939 H         1 NCZ         0.1528 
     32 H16         1.6354    6.1419   -7.6370 H         1 NCZ         0.0836 
     33 H6          2.3219    8.4718   -9.1133 H         1 NCZ         0.4243 
     34 H5         -2.8166    8.2285   -8.2663 H         1 NCZ         0.4243 
     35 H2         -1.1927    4.8683   -4.1482 H         1 NCZ         0.4084 
     36 H3          1.1035   11.1387    0.2415 H         1 NCZ         0.1346 
     37 H171        2.0546   13.8167   -3.2002 H         1 NCZ         0.0417 
     38 H172        0.7795   12.8498   -3.9307 H         1 NCZ         0.0417 
     39 H173        2.4329   12.2010   -3.7876 H         1 NCZ         0.0417 
     40 H181        0.5714    9.4728    1.8271 H         1 NCZ         0.0733 
     41 H182        1.1031    7.8862    1.2678 H         1 NCZ         0.0733 
     42 H183       -0.6221    8.2873    1.3262 H         1 NCZ         0.0733 
@<TRIPOS>BOND
     1    1    2 ar   
     2    1   21 ar   
     3    1   25 1    
     4    2    3 ar   
     5    2    7 ar   
     6    3    4 ar   
     7    3   19 ar   
     8    4    5 ar   
     9    4   26 1    
    10    5    6 ar   
    11    5   27 1    
    12    6    7 ar   
    13    6   18 1    
    14    7    8 1    
    15    8    9 2    
    16    8   10 1    
    17   10   11 1    
    18   11   12 1    
    19   11   15 1    
    20   11   28 1    
    21   12   13 1    
    22   12   17 1    
    23   12   29 1    
    24   13   14 2    
    25   13   30 1    
    26   14   15 1    
    27   14   31 1    
    28   15   16 1    
    29   15   32 1    
    30   16   33 1    
    31   17   34 1    
    32   18   35 1    
    33   19   20 ar   
    34   19   24 1    
    35   20   21 ar   
    36   20   36 1    
    37   21   22 1    
    38   22   23 1    
    39   23   37 1    
    40   23   38 1    
    41   23   39 1    
    42   24   40 1    
    43   24   41 1    
    44   24   42 1    
@<TRIPOS>SUBSTRUCTURE
     1 NCZ         1 GROUP             0       ****    0 ROOT    
