@<TRIPOS>MOLECULE
NCZ
42   44    1
SMALL
USER_CHARGES


@<TRIPOS>ATOM
      1 C1         -0.0130   10.7282    2.1555 C.ar      1 NCZ        -0.1709 
      2 C6          0.2545   10.8633    0.7593 C.ar      1 NCZ         0.0726 
      3 C5          0.3723   12.1914    0.2289 C.ar      1 NCZ        -0.0959 
      4 C7          0.6888   12.3484   -1.1449 C.ar      1 NCZ        -0.0424 
      5 C8          0.8808   11.2460   -1.9612 C.ar      1 NCZ        -0.2379 
      6 C9          0.7470    9.9560   -1.4708 C.ar      1 NCZ         0.2611 
      7 C10         0.4039    9.7331   -0.1253 C.ar      1 NCZ        -0.3060 
      8 C11         0.1280    8.3381    0.3337 C.2       1 NCZ         0.6421 
      9 O3          0.7961    7.7422    1.1785 O.2       1 NCZ        -0.4040 
     10 O4         -1.0416    7.8931   -0.1950 O.3       1 NCZ        -0.3226 
     11 C12        -1.6120    6.5913    0.0206 C.3       1 NCZ         0.0648 
     12 C13        -1.8668    6.2086    1.4788 C.3       1 NCZ         0.2089 
     13 C14        -1.6076    4.7215    1.4662 C.2       1 NCZ        -0.2040 
     14 C15        -1.0421    4.3204    0.3170 C.2       1 NCZ        -0.2040 
     15 C16        -0.8803    5.4465   -0.6757 C.3       1 NCZ         0.2089 
     16 O6         -1.4405    5.0814   -1.9191 O.3       1 NCZ        -0.6331 
     17 O5         -3.1739    6.5418    1.8666 O.3       1 NCZ        -0.6331 
     18 O2          0.9579    8.9415   -2.3730 O.3       1 NCZ        -0.5507 
     19 C4          0.1611   13.3113    1.0922 C.ar      1 NCZ        -0.0224 
     20 C3         -0.1131   13.1110    2.4414 C.ar      1 NCZ        -0.1967 
     21 C2         -0.1748   11.8393    2.9885 C.ar      1 NCZ         0.1767 
     22 O1         -0.4123   11.7620    4.3462 O.3       1 NCZ        -0.3596 
     23 C17         0.0006   10.5914    5.0447 C.3       1 NCZ         0.1374 
     24 C18         0.2341   14.7341    0.5515 C.3       1 NCZ        -0.1312 
     25 H1         -0.0857    9.7406    2.5793 H         1 NCZ         0.1606 
     26 H7          0.7941   13.3342   -1.5717 H         1 NCZ         0.1348 
     27 H8          1.1363   11.3946   -3.0002 H         1 NCZ         0.1341 
     28 H12        -2.5862    6.6442   -0.4588 H         1 NCZ         0.1032 
     29 H13        -1.1692    6.6726    2.1738 H         1 NCZ         0.0836 
     30 H14        -1.8122    4.0954    2.3199 H         1 NCZ         0.1528 
     31 H15        -0.7164    3.3217    0.0832 H         1 NCZ         0.1528 
     32 H16         0.1576    5.7420   -0.8111 H         1 NCZ         0.0836 
     33 H6         -0.8640    4.4270   -2.3371 H         1 NCZ         0.4243 
     34 H5         -3.7893    5.9687    1.3896 H         1 NCZ         0.4243 
     35 H2          1.5257    8.2142   -2.0701 H         1 NCZ         0.4084 
     36 H3         -0.2642   13.9614    3.0899 H         1 NCZ         0.1346 
     37 H171       -0.0713   10.7707    6.1175 H         1 NCZ         0.0417 
     38 H172        1.0369   10.3289    4.8227 H         1 NCZ         0.0417 
     39 H173       -0.6383    9.7405    4.8174 H         1 NCZ         0.0417 
     40 H181        0.0132   15.4733    1.3230 H         1 NCZ         0.0733 
     41 H182       -0.4909   14.8760   -0.2504 H         1 NCZ         0.0733 
     42 H183        1.2316   14.9449    0.1646 H         1 NCZ         0.0733 
@<TRIPOS>BOND
     1    1    2 ar   
     2    1   21 ar   
     3    1   25 1    
     4    2    3 ar   
     5    2    7 ar   
     6    3    4 ar   
     7    3   19 ar   
     8    4    5 ar   
     9    4   26 1    
    10    5    6 ar   
    11    5   27 1    
    12    6    7 ar   
    13    6   18 1    
    14    7    8 1    
    15    8    9 2    
    16    8   10 1    
    17   10   11 1    
    18   11   12 1    
    19   11   15 1    
    20   11   28 1    
    21   12   13 1    
    22   12   17 1    
    23   12   29 1    
    24   13   14 2    
    25   13   30 1    
    26   14   15 1    
    27   14   31 1    
    28   15   16 1    
    29   15   32 1    
    30   16   33 1    
    31   17   34 1    
    32   18   35 1    
    33   19   20 ar   
    34   19   24 1    
    35   20   21 ar   
    36   20   36 1    
    37   21   22 1    
    38   22   23 1    
    39   23   37 1    
    40   23   38 1    
    41   23   39 1    
    42   24   40 1    
    43   24   41 1    
    44   24   42 1    
@<TRIPOS>SUBSTRUCTURE
     1 NCZ         1 GROUP             0       ****    0 ROOT    
