@<TRIPOS>MOLECULE
NCZ
42   44    1
SMALL
USER_CHARGES


@<TRIPOS>ATOM
      1 C1         -0.2186   11.1234    2.3096 C.ar      1 NCZ        -0.1709 
      2 C6          0.2402   10.9953    0.9673 C.ar      1 NCZ         0.0726 
      3 C5          0.8333   12.1424    0.3481 C.ar      1 NCZ        -0.0959 
      4 C7          1.3583   12.0018   -0.9639 C.ar      1 NCZ        -0.0424 
      5 C8          1.3074   10.7838   -1.6295 C.ar      1 NCZ        -0.2379 
      6 C9          0.6922    9.6807   -1.0562 C.ar      1 NCZ         0.2611 
      7 C10         0.1312    9.7688    0.2250 C.ar      1 NCZ        -0.3060 
      8 C11        -0.6453    8.6224    0.7640 C.2       1 NCZ         0.6421 
      9 O3         -1.8693    8.5686    0.6656 O.2       1 NCZ        -0.4040 
     10 O4          0.1111    7.7454    1.4668 O.3       1 NCZ        -0.3226 
     11 C12        -0.4969    6.6913    2.2301 C.3       1 NCZ         0.0648 
     12 C13         0.5436    5.9650    3.0837 C.3       1 NCZ         0.2089 
     13 C14         0.1062    4.5255    2.9545 C.2       1 NCZ        -0.2040 
     14 C15        -0.8233    4.3375    2.0064 C.2       1 NCZ        -0.2040 
     15 C16        -1.2435    5.6404    1.3856 C.3       1 NCZ         0.2089 
     16 O6         -2.6418    5.7913    1.4666 O.3       1 NCZ        -0.6331 
     17 O5          0.5576    6.3940    4.4299 O.3       1 NCZ        -0.6331 
     18 O2          0.6121    8.5344   -1.8062 O.3       1 NCZ        -0.5507 
     19 C4          0.8700   13.3784    1.0696 C.ar      1 NCZ        -0.0224 
     20 C3          0.3757   13.4463    2.3701 C.ar      1 NCZ        -0.1967 
     21 C2         -0.1378   12.3279    3.0079 C.ar      1 NCZ         0.1767 
     22 O1         -0.5636   12.4754    4.3111 O.3       1 NCZ        -0.3596 
     23 C17        -0.3830   11.3694    5.1918 C.3       1 NCZ         0.1374 
     24 C18         1.4699   14.6274    0.4420 C.3       1 NCZ        -0.1312 
     25 H1         -0.6305   10.2582    2.7978 H         1 NCZ         0.1606 
     26 H7          1.8200   12.8434   -1.4560 H         1 NCZ         0.1348 
     27 H8          1.7254   10.7019   -2.6223 H         1 NCZ         0.1341 
     28 H12        -1.2059    7.1646    2.9083 H         1 NCZ         0.1032 
     29 H13         1.5460    6.0772    2.6667 H         1 NCZ         0.0836 
     30 H14         0.5579    3.7419    3.5189 H         1 NCZ         0.1528 
     31 H15        -1.2425    3.3910    1.6962 H         1 NCZ         0.1528 
     32 H16        -0.9128    5.6710    0.3450 H         1 NCZ         0.0836 
     33 H6         -2.9260    5.4665    2.3342 H         1 NCZ         0.4243 
     34 H5          1.1511    5.8133    4.9215 H         1 NCZ         0.4243 
     35 H2          1.4494    8.0404   -1.8677 H         1 NCZ         0.4084 
     36 H3          0.4147   14.3790    2.9135 H         1 NCZ         0.1346 
     37 H171       -0.6127   11.6803    6.2108 H         1 NCZ         0.0417 
     38 H172        0.6482   11.0131    5.1802 H         1 NCZ         0.0417 
     39 H173       -1.0423   10.5369    4.9496 H         1 NCZ         0.0417 
     40 H181        1.2876   15.5142    1.0499 H         1 NCZ         0.0733 
     41 H182        1.0450   14.8167   -0.5439 H         1 NCZ         0.0733 
     42 H183        2.5482   14.5064    0.3494 H         1 NCZ         0.0733 
@<TRIPOS>BOND
     1    1    2 ar   
     2    1   21 ar   
     3    1   25 1    
     4    2    3 ar   
     5    2    7 ar   
     6    3    4 ar   
     7    3   19 ar   
     8    4    5 ar   
     9    4   26 1    
    10    5    6 ar   
    11    5   27 1    
    12    6    7 ar   
    13    6   18 1    
    14    7    8 1    
    15    8    9 2    
    16    8   10 1    
    17   10   11 1    
    18   11   12 1    
    19   11   15 1    
    20   11   28 1    
    21   12   13 1    
    22   12   17 1    
    23   12   29 1    
    24   13   14 2    
    25   13   30 1    
    26   14   15 1    
    27   14   31 1    
    28   15   16 1    
    29   15   32 1    
    30   16   33 1    
    31   17   34 1    
    32   18   35 1    
    33   19   20 ar   
    34   19   24 1    
    35   20   21 ar   
    36   20   36 1    
    37   21   22 1    
    38   22   23 1    
    39   23   37 1    
    40   23   38 1    
    41   23   39 1    
    42   24   40 1    
    43   24   41 1    
    44   24   42 1    
@<TRIPOS>SUBSTRUCTURE
     1 NCZ         1 GROUP             0       ****    0 ROOT    
