@<TRIPOS>MOLECULE
NCZ
42   44    1
SMALL
USER_CHARGES


@<TRIPOS>ATOM
      1 C1         -0.2861    8.1736   -6.4592 C.ar      1 NCZ        -0.1709 
      2 C6          0.4819    9.3740   -6.5362 C.ar      1 NCZ         0.0726 
      3 C5          1.3835    9.5220   -7.6416 C.ar      1 NCZ        -0.0959 
      4 C7          2.1580   10.7094   -7.7334 C.ar      1 NCZ        -0.0424 
      5 C8          2.0808   11.6888   -6.7537 C.ar      1 NCZ        -0.2379 
      6 C9          1.2166   11.5538   -5.6768 C.ar      1 NCZ         0.2611 
      7 C10         0.3857   10.4269   -5.5589 C.ar      1 NCZ        -0.3060 
      8 C11        -0.6219   10.3777   -4.4542 C.2       1 NCZ         0.6421 
      9 O3         -1.8355   10.3686   -4.6558 O.2       1 NCZ        -0.4040 
     10 O4         -0.1027   10.2841   -3.2099 O.3       1 NCZ        -0.3226 
     11 C12         0.6583    9.1453   -2.7761 C.3       1 NCZ         0.0648 
     12 C13        -0.2417    7.9054   -2.5909 C.3       1 NCZ         0.2089 
     13 C14        -0.2420    7.6771   -1.0973 C.2       1 NCZ        -0.2040 
     14 C15         0.5580    8.5418   -0.4536 C.2       1 NCZ        -0.2040 
     15 C16         1.2646    9.4830   -1.4034 C.3       1 NCZ         0.2089 
     16 O6          2.6666    9.3418   -1.3569 O.3       1 NCZ        -0.6331 
     17 O5          0.1580    6.7578   -3.3015 O.3       1 NCZ        -0.6331 
     18 O2          1.1971   12.5764   -4.7604 O.3       1 NCZ        -0.5507 
     19 C4          1.4819    8.4718   -8.6070 C.ar      1 NCZ        -0.0224 
     20 C3          0.6947    7.3303   -8.4832 C.ar      1 NCZ        -0.1967 
     21 C2         -0.1976    7.1772   -7.4218 C.ar      1 NCZ         0.1767 
     22 O1         -1.0020    6.0700   -7.2509 O.3       1 NCZ        -0.3596 
     23 C17        -1.4582    5.3992   -8.4195 C.3       1 NCZ         0.1374 
     24 C18         2.4546    8.5832   -9.7749 C.3       1 NCZ        -0.1312 
     25 H1         -0.9684    8.0177   -5.6381 H         1 NCZ         0.1606 
     26 H7          2.8440   10.8499   -8.5551 H         1 NCZ         0.1348 
     27 H8          2.7041   12.5668   -6.8417 H         1 NCZ         0.1341 
     28 H12         1.4452    8.9649   -3.5120 H         1 NCZ         0.1032 
     29 H13        -1.2438    8.1432   -2.9334 H         1 NCZ         0.0836 
     30 H14        -0.8317    6.8962   -0.6404 H         1 NCZ         0.1528 
     31 H15         0.7313    8.5750    0.6116 H         1 NCZ         0.1528 
     32 H16         1.0277   10.5098   -1.1186 H         1 NCZ         0.0836 
     33 H6          2.8839    8.3970   -1.5141 H         1 NCZ         0.4243 
     34 H5          1.0637    6.5418   -3.0027 H         1 NCZ         0.4243 
     35 H2          1.8682   13.2397   -4.9334 H         1 NCZ         0.4084 
     36 H3          0.7977    6.5503   -9.2211 H         1 NCZ         0.1346 
     37 H171       -2.1479    4.6052   -8.1352 H         1 NCZ         0.0417 
     38 H172       -0.6420    4.9418   -8.9748 H         1 NCZ         0.0417 
     39 H173       -1.9950    6.0806   -9.0816 H         1 NCZ         0.0417 
     40 H181        2.4263    7.7005  -10.4148 H         1 NCZ         0.0733 
     41 H182        3.4765    8.6897   -9.4089 H         1 NCZ         0.0733 
     42 H183        2.2128    9.4476  -10.3937 H         1 NCZ         0.0733 
@<TRIPOS>BOND
     1    1    2 ar   
     2    1   21 ar   
     3    1   25 1    
     4    2    3 ar   
     5    2    7 ar   
     6    3    4 ar   
     7    3   19 ar   
     8    4    5 ar   
     9    4   26 1    
    10    5    6 ar   
    11    5   27 1    
    12    6    7 ar   
    13    6   18 1    
    14    7    8 1    
    15    8    9 2    
    16    8   10 1    
    17   10   11 1    
    18   11   12 1    
    19   11   15 1    
    20   11   28 1    
    21   12   13 1    
    22   12   17 1    
    23   12   29 1    
    24   13   14 2    
    25   13   30 1    
    26   14   15 1    
    27   14   31 1    
    28   15   16 1    
    29   15   32 1    
    30   16   33 1    
    31   17   34 1    
    32   18   35 1    
    33   19   20 ar   
    34   19   24 1    
    35   20   21 ar   
    36   20   36 1    
    37   21   22 1    
    38   22   23 1    
    39   23   37 1    
    40   23   38 1    
    41   23   39 1    
    42   24   40 1    
    43   24   41 1    
    44   24   42 1    
@<TRIPOS>SUBSTRUCTURE
     1 NCZ         1 GROUP             0       ****    0 ROOT    
