@<TRIPOS>MOLECULE
NCZ
42   44    1
SMALL
USER_CHARGES


@<TRIPOS>ATOM
      1 C1          0.5580   11.1797    3.3912 C.ar      1 NCZ        -0.1709 
      2 C6          1.1270   12.4153    2.9556 C.ar      1 NCZ         0.0726 
      3 C5          1.8902   13.1620    3.9160 C.ar      1 NCZ        -0.0959 
      4 C7          2.4163   14.4217    3.5319 C.ar      1 NCZ        -0.0424 
      5 C8          2.1842   14.9336    2.2666 C.ar      1 NCZ        -0.2379 
      6 C9          1.4677   14.2166    1.3230 C.ar      1 NCZ         0.2611 
      7 C10         0.9590   12.9379    1.6164 C.ar      1 NCZ        -0.3060 
      8 C11         0.1871   12.2098    0.5550 C.2       1 NCZ         0.6421 
      9 O3         -0.6420   12.7642   -0.1710 O.2       1 NCZ        -0.4040 
     10 O4          0.5754   10.9097    0.4127 O.3       1 NCZ        -0.3226 
     11 C12        -0.1402   10.0047   -0.4422 C.3       1 NCZ         0.0648 
     12 C13        -1.4826    9.6258    0.1961 C.3       1 NCZ         0.2089 
     13 C14        -1.4420    8.1149    0.2666 C.2       1 NCZ        -0.2040 
     14 C15        -0.2898    7.6197   -0.2150 C.2       1 NCZ        -0.2040 
     15 C16         0.6373    8.7054   -0.7068 C.3       1 NCZ         0.2089 
     16 O6          0.9580    8.5418   -2.0668 O.3       1 NCZ        -0.6331 
     17 O5         -2.5756   10.1418   -0.5334 O.3       1 NCZ        -0.6331 
     18 O2          1.2987   14.8155    0.0983 O.3       1 NCZ        -0.5507 
     19 C4          2.0876   12.6267    5.2296 C.ar      1 NCZ        -0.0224 
     20 C3          1.5336   11.3974    5.5752 C.ar      1 NCZ        -0.1967 
     21 C2          0.7841   10.6686    4.6666 C.ar      1 NCZ         0.1767 
     22 O1          0.2575    9.4648    5.0707 O.3       1 NCZ        -0.3596 
     23 C17         0.5611    8.3392    4.2499 C.3       1 NCZ         0.1374 
     24 C18         2.9006   13.3927    6.2661 C.3       1 NCZ        -0.1312 
     25 H1         -0.0563   10.6028    2.7255 H         1 NCZ         0.1606 
     26 H7          2.9901   15.0103    4.2316 H         1 NCZ         0.1348 
     27 H8          2.5784   15.9057    2.0088 H         1 NCZ         0.1341 
     28 H12        -0.3004   10.5198   -1.3925 H         1 NCZ         0.1032 
     29 H13        -1.5480   10.0013    1.2163 H         1 NCZ         0.0836 
     30 H14        -2.2552    7.5370    0.6805 H         1 NCZ         0.1528 
     31 H15        -0.0019    6.5779   -0.2619 H         1 NCZ         0.1528 
     32 H16         1.5575    8.6623   -0.1334 H         1 NCZ         0.0836 
     33 H6          1.6518    7.8522   -2.1334 H         1 NCZ         0.4243 
     34 H5         -3.3244   10.2001    0.0785 H         1 NCZ         0.4243 
     35 H2          0.6884   14.3223   -0.4574 H         1 NCZ         0.4084 
     36 H3          1.6860   10.9920    6.5647 H         1 NCZ         0.1346 
     37 H171        0.1270    7.4440    4.6957 H         1 NCZ         0.0417 
     38 H172        1.6385    8.1817    4.1779 H         1 NCZ         0.0417 
     39 H173        0.1580    8.4273    3.2407 H         1 NCZ         0.0417 
     40 H181        2.9639   12.8540    7.2123 H         1 NCZ         0.0733 
     41 H182        2.4437   14.3615    6.4701 H         1 NCZ         0.0733 
     42 H183        3.9181   13.5552    5.9095 H         1 NCZ         0.0733 
@<TRIPOS>BOND
     1    1    2 ar   
     2    1   21 ar   
     3    1   25 1    
     4    2    3 ar   
     5    2    7 ar   
     6    3    4 ar   
     7    3   19 ar   
     8    4    5 ar   
     9    4   26 1    
    10    5    6 ar   
    11    5   27 1    
    12    6    7 ar   
    13    6   18 1    
    14    7    8 1    
    15    8    9 2    
    16    8   10 1    
    17   10   11 1    
    18   11   12 1    
    19   11   15 1    
    20   11   28 1    
    21   12   13 1    
    22   12   17 1    
    23   12   29 1    
    24   13   14 2    
    25   13   30 1    
    26   14   15 1    
    27   14   31 1    
    28   15   16 1    
    29   15   32 1    
    30   16   33 1    
    31   17   34 1    
    32   18   35 1    
    33   19   20 ar   
    34   19   24 1    
    35   20   21 ar   
    36   20   36 1    
    37   21   22 1    
    38   22   23 1    
    39   23   37 1    
    40   23   38 1    
    41   23   39 1    
    42   24   40 1    
    43   24   41 1    
    44   24   42 1    
@<TRIPOS>SUBSTRUCTURE
     1 NCZ         1 GROUP             0       ****    0 ROOT    
