@<TRIPOS>MOLECULE
NCZ
42   44    1
SMALL
USER_CHARGES


@<TRIPOS>ATOM
      1 C1          0.1580   10.6470    2.3452 C.ar      1 NCZ        -0.1709 
      2 C6          0.2622   10.5090    3.7684 C.ar      1 NCZ         0.0726 
      3 C5          0.0746   11.7030    4.5463 C.ar      1 NCZ        -0.0959 
      4 C7          0.2349   11.6343    5.9516 C.ar      1 NCZ        -0.0424 
      5 C8          0.5814   10.4487    6.5706 C.ar      1 NCZ        -0.2379 
      6 C9          0.7484    9.2821    5.8450 C.ar      1 NCZ         0.2611 
      7 C10         0.5580    9.2500    4.4457 C.ar      1 NCZ        -0.3060 
      8 C11         0.7021    7.9123    3.7405 C.2       1 NCZ         0.6421 
      9 O3          1.3582    6.9706    4.1913 O.2       1 NCZ        -0.4040 
     10 O4         -0.0600    7.7935    2.6276 O.3       1 NCZ        -0.3226 
     11 C12         0.0035    6.6631    1.7703 C.3       1 NCZ         0.0648 
     12 C13        -0.6952    6.9508    0.4367 C.3       1 NCZ         0.2089 
     13 C14        -1.2872    5.6047    0.0791 C.2       1 NCZ        -0.2040 
     14 C15        -1.2947    4.7723    1.1359 C.2       1 NCZ        -0.2040 
     15 C16        -0.6923    5.4226    2.3635 C.3       1 NCZ         0.2089 
     16 O6          0.1580    4.5419    3.0666 O.3       1 NCZ        -0.6331 
     17 O5          0.1580    7.4599   -0.5702 O.3       1 NCZ        -0.6331 
     18 O2          1.0879    8.1727    6.5811 O.3       1 NCZ        -0.5507 
     19 C4         -0.2568   12.9318    3.8915 C.ar      1 NCZ        -0.0224 
     20 C3         -0.3750   12.9768    2.5077 C.ar      1 NCZ        -0.1967 
     21 C2         -0.1718   11.8546    1.7249 C.ar      1 NCZ         0.1767 
     22 O1         -0.3110   12.0230    0.3605 O.3       1 NCZ        -0.3596 
     23 C17        -0.1771   10.8955   -0.5010 C.3       1 NCZ         0.1374 
     24 C18        -0.4862   14.2074    4.6930 C.3       1 NCZ        -0.1312 
     25 H1          0.3720    9.8110    1.7073 H         1 NCZ         0.1606 
     26 H7          0.1083   12.5161    6.5616 H         1 NCZ         0.1348 
     27 H8          0.7180   10.4324    7.6426 H         1 NCZ         0.1341 
     28 H12         1.0688    6.5419    1.5909 H         1 NCZ         0.1032 
     29 H13        -1.5178    7.6540    0.5842 H         1 NCZ         0.0836 
     30 H14        -1.6793    5.3903   -0.9043 H         1 NCZ         0.1528 
     31 H15        -1.6917    3.7677    1.1579 H         1 NCZ         0.1528 
     32 H16        -1.4947    5.7413    3.0292 H         1 NCZ         0.0836 
     33 H6          0.6596    5.0395    3.7223 H         1 NCZ         0.4243 
     34 H5          0.9884    6.9481   -0.6171 H         1 NCZ         0.4243 
     35 H2          1.2468    7.4108    6.0130 H         1 NCZ         0.4084 
     36 H3         -0.6333   13.9059    2.0190 H         1 NCZ         0.1346 
     37 H171       -0.3445   11.2079   -1.5316 H         1 NCZ         0.0417 
     38 H172       -0.9148   10.1254   -0.2684 H         1 NCZ         0.0417 
     39 H173        0.8242   10.4631   -0.4479 H         1 NCZ         0.0417 
     40 H181       -0.7622   15.0457    4.0518 H         1 NCZ         0.0733 
     41 H182        0.4190   14.4900    5.2310 H         1 NCZ         0.0733 
     42 H183       -1.2918   14.0686    5.4136 H         1 NCZ         0.0733 
@<TRIPOS>BOND
     1    1    2 ar   
     2    1   21 ar   
     3    1   25 1    
     4    2    3 ar   
     5    2    7 ar   
     6    3    4 ar   
     7    3   19 ar   
     8    4    5 ar   
     9    4   26 1    
    10    5    6 ar   
    11    5   27 1    
    12    6    7 ar   
    13    6   18 1    
    14    7    8 1    
    15    8    9 2    
    16    8   10 1    
    17   10   11 1    
    18   11   12 1    
    19   11   15 1    
    20   11   28 1    
    21   12   13 1    
    22   12   17 1    
    23   12   29 1    
    24   13   14 2    
    25   13   30 1    
    26   14   15 1    
    27   14   31 1    
    28   15   16 1    
    29   15   32 1    
    30   16   33 1    
    31   17   34 1    
    32   18   35 1    
    33   19   20 ar   
    34   19   24 1    
    35   20   21 ar   
    36   20   36 1    
    37   21   22 1    
    38   22   23 1    
    39   23   37 1    
    40   23   38 1    
    41   23   39 1    
    42   24   40 1    
    43   24   41 1    
    44   24   42 1    
@<TRIPOS>SUBSTRUCTURE
     1 NCZ         1 GROUP             0       ****    0 ROOT    
