@<TRIPOS>MOLECULE
NCZ
42   44    1
SMALL
USER_CHARGES


@<TRIPOS>ATOM
      1 C1         -0.2420    6.2016    2.2233 C.ar      1 NCZ        -0.1709 
      2 C6          0.0333    7.5188    2.7010 C.ar      1 NCZ         0.0726 
      3 C5          0.2531    7.6756    4.1119 C.ar      1 NCZ        -0.0959 
      4 C7          0.5580    8.9658    4.6194 C.ar      1 NCZ        -0.0424 
      5 C8          0.5068   10.0792    3.7975 C.ar      1 NCZ        -0.2379 
      6 C9          0.2018    9.9588    2.4471 C.ar      1 NCZ         0.2611 
      7 C10         0.0278    8.6916    1.8502 C.ar      1 NCZ        -0.3060 
      8 C11        -0.2232    8.5895    0.3710 C.2       1 NCZ         0.6421 
      9 O3         -1.0419    7.8248   -0.1346 O.2       1 NCZ        -0.4040 
     10 O4          0.5768    9.4129   -0.3456 O.3       1 NCZ        -0.3226 
     11 C12         0.6236    9.4107   -1.7791 C.3       1 NCZ         0.0648 
     12 C13         1.8192   10.2808   -2.1852 C.3       1 NCZ         0.2089 
     13 C14         1.1644   11.5898   -2.5732 C.2       1 NCZ        -0.2040 
     14 C15        -0.1681   11.4610   -2.7050 C.2       1 NCZ        -0.2040 
     15 C16        -0.6226   10.0458   -2.4256 C.3       1 NCZ         0.2089 
     16 O6         -1.0320    9.3813   -3.6038 O.3       1 NCZ        -0.6331 
     17 O5          2.5817    9.7415   -3.2409 O.3       1 NCZ        -0.6331 
     18 O2          0.1295   11.1317    1.7366 O.3       1 NCZ        -0.5507 
     19 C4          0.1110    6.5428    4.9694 C.ar      1 NCZ        -0.0224 
     20 C3         -0.2420    5.3060    4.4392 C.ar      1 NCZ        -0.1967 
     21 C2         -0.3763    5.1074    3.0767 C.ar      1 NCZ         0.1767 
     22 O1         -0.6420    3.8183    2.6563 O.3       1 NCZ        -0.3596 
     23 C17        -1.0369    3.5955    1.3060 C.3       1 NCZ         0.1374 
     24 C18         0.3017    6.6760    6.4751 C.3       1 NCZ        -0.1312 
     25 H1         -0.3423    6.0299    1.1676 H         1 NCZ         0.1606 
     26 H7          0.7588    9.1043    5.6710 H         1 NCZ         0.1348 
     27 H8          0.6838   11.0575    4.2196 H         1 NCZ         0.1341 
     28 H12         0.7705    8.3687   -2.0773 H         1 NCZ         0.1032 
     29 H13         2.4859   10.4262   -1.3320 H         1 NCZ         0.0836 
     30 H14         1.7411   12.4891   -2.7304 H         1 NCZ         0.1528 
     31 H15        -0.8627   12.2385   -2.9873 H         1 NCZ         0.1528 
     32 H16        -1.4574   10.0588   -1.7236 H         1 NCZ         0.0836 
     33 H6         -0.2722    9.3491   -4.1921 H         1 NCZ         0.4243 
     34 H5          2.8711    8.8478   -2.9795 H         1 NCZ         0.4243 
     35 H2          0.1437   10.9680    0.7895 H         1 NCZ         0.4084 
     36 H3         -0.3502    4.4576    5.0979 H         1 NCZ         0.1346 
     37 H171       -1.2712    2.5425    1.1734 H         1 NCZ         0.0417 
     38 H172       -0.2420    3.8353    0.6004 H         1 NCZ         0.0417 
     39 H173       -1.9314    4.1655    1.0490 H         1 NCZ         0.0417 
     40 H181        0.1556    5.7240    6.9869 H         1 NCZ         0.0733 
     41 H182       -0.4148    7.3861    6.8892 H         1 NCZ         0.0733 
     42 H183        1.3115    7.0184    6.7018 H         1 NCZ         0.0733 
@<TRIPOS>BOND
     1    1    2 ar   
     2    1   21 ar   
     3    1   25 1    
     4    2    3 ar   
     5    2    7 ar   
     6    3    4 ar   
     7    3   19 ar   
     8    4    5 ar   
     9    4   26 1    
    10    5    6 ar   
    11    5   27 1    
    12    6    7 ar   
    13    6   18 1    
    14    7    8 1    
    15    8    9 2    
    16    8   10 1    
    17   10   11 1    
    18   11   12 1    
    19   11   15 1    
    20   11   28 1    
    21   12   13 1    
    22   12   17 1    
    23   12   29 1    
    24   13   14 2    
    25   13   30 1    
    26   14   15 1    
    27   14   31 1    
    28   15   16 1    
    29   15   32 1    
    30   16   33 1    
    31   17   34 1    
    32   18   35 1    
    33   19   20 ar   
    34   19   24 1    
    35   20   21 ar   
    36   20   36 1    
    37   21   22 1    
    38   22   23 1    
    39   23   37 1    
    40   23   38 1    
    41   23   39 1    
    42   24   40 1    
    43   24   41 1    
    44   24   42 1    
@<TRIPOS>SUBSTRUCTURE
     1 NCZ         1 GROUP             0       ****    0 ROOT    
